<routes>
        <vType id="typeWE" accel="0.8" decel="4.5" sigma="0.5" length="5" minGap="2.5" maxSpeed="16.67" guiShape="passenger"/>
        <vType id="typeNS" accel="0.8" decel="4.5" sigma="0.5" length="7" minGap="3" maxSpeed="25" guiShape="bus"/>

        <route id="right" edges="51o 1i 2o 52i" />
        <route id="left" edges="52o 2i 1o 51i" />
        <route id="down" edges="54o 4i 3o 53i" />
        <route id="up" edges="53o 3i 4o 54i" />
    <vehicle id="left_0" type="typeWE" route="left" depart="0" />
    <vehicle id="left_1" type="typeWE" route="left" depart="2" />
    <vehicle id="right_2" type="typeWE" route="right" depart="3" />
    <vehicle id="right_3" type="typeWE" route="right" depart="4" />
    <vehicle id="left_4" type="typeWE" route="left" depart="6" />
    <vehicle id="right_5" type="typeWE" route="right" depart="9" />
    <vehicle id="down_6" type="typeNS" route="down" depart="13" color="1,0,0"/>
    <vehicle id="down_7" type="typeNS" route="down" depart="14" color="1,0,0"/>
    <vehicle id="left_8" type="typeWE" route="left" depart="22" />
    <vehicle id="down_9" type="typeNS" route="down" depart="29" color="1,0,0"/>
    <vehicle id="left_10" type="typeWE" route="left" depart="31" />
    <vehicle id="left_11" type="typeWE" route="left" depart="33" />
    <vehicle id="left_12" type="typeWE" route="left" depart="41" />
    <vehicle id="right_13" type="typeWE" route="right" depart="42" />
    <vehicle id="down_14" type="typeNS" route="down" depart="43" color="1,0,0"/>
    <vehicle id="left_15" type="typeWE" route="left" depart="45" />
    <vehicle id="left_16" type="typeWE" route="left" depart="53" />
    <vehicle id="right_17" type="typeWE" route="right" depart="55" />
    <vehicle id="right_18" type="typeWE" route="right" depart="61" />
    <vehicle id="down_19" type="typeNS" route="down" depart="65" color="1,0,0"/>
    <vehicle id="right_20" type="typeWE" route="right" depart="69" />
    <vehicle id="down_21" type="typeNS" route="down" depart="74" color="1,0,0"/>
    <vehicle id="down_22" type="typeNS" route="down" depart="76" color="1,0,0"/>
    <vehicle id="right_23" type="typeWE" route="right" depart="84" />
    <vehicle id="left_24" type="typeWE" route="left" depart="85" />
    <vehicle id="down_25" type="typeNS" route="down" depart="89" color="1,0,0"/>
    <vehicle id="down_26" type="typeNS" route="down" depart="96" color="1,0,0"/>
    <vehicle id="right_27" type="typeWE" route="right" depart="99" />
    <vehicle id="left_28" type="typeWE" route="left" depart="99" />
    <vehicle id="right_29" type="typeWE" route="right" depart="108" />
    <vehicle id="right_30" type="typeWE" route="right" depart="114" />
    <vehicle id="down_31" type="typeNS" route="down" depart="122" color="1,0,0"/>
    <vehicle id="right_32" type="typeWE" route="right" depart="125" />
    <vehicle id="left_33" type="typeWE" route="left" depart="131" />
    <vehicle id="left_34" type="typeWE" route="left" depart="135" />
    <vehicle id="left_35" type="typeWE" route="left" depart="138" />
    <vehicle id="down_36" type="typeNS" route="down" depart="139" color="1,0,0"/>
    <vehicle id="left_37" type="typeWE" route="left" depart="142" />
    <vehicle id="right_38" type="typeWE" route="right" depart="145" />
    <vehicle id="left_39" type="typeWE" route="left" depart="153" />
    <vehicle id="left_40" type="typeWE" route="left" depart="156" />
    <vehicle id="left_41" type="typeWE" route="left" depart="160" />
    <vehicle id="left_42" type="typeWE" route="left" depart="164" />
    <vehicle id="right_43" type="typeWE" route="right" depart="167" />
    <vehicle id="right_44" type="typeWE" route="right" depart="168" />
    <vehicle id="left_45" type="typeWE" route="left" depart="169" />
    <vehicle id="left_46" type="typeWE" route="left" depart="172" />
    <vehicle id="down_47" type="typeNS" route="down" depart="172" color="1,0,0"/>
    <vehicle id="right_48" type="typeWE" route="right" depart="176" />
    <vehicle id="right_49" type="typeWE" route="right" depart="181" />
    <vehicle id="right_50" type="typeWE" route="right" depart="183" />
    <vehicle id="left_51" type="typeWE" route="left" depart="194" />
    <vehicle id="left_52" type="typeWE" route="left" depart="196" />
    <vehicle id="left_53" type="typeWE" route="left" depart="199" />
    <vehicle id="right_54" type="typeWE" route="right" depart="200" />
    <vehicle id="left_55" type="typeWE" route="left" depart="212" />
    <vehicle id="right_56" type="typeWE" route="right" depart="217" />
    <vehicle id="down_57" type="typeNS" route="down" depart="218" color="1,0,0"/>
    <vehicle id="left_58" type="typeWE" route="left" depart="219" />
    <vehicle id="down_59" type="typeNS" route="down" depart="227" color="1,0,0"/>
    <vehicle id="right_60" type="typeWE" route="right" depart="228" />
    <vehicle id="left_61" type="typeWE" route="left" depart="234" />
    <vehicle id="left_62" type="typeWE" route="left" depart="238" />
    <vehicle id="down_63" type="typeNS" route="down" depart="238" color="1,0,0"/>
    <vehicle id="right_64" type="typeWE" route="right" depart="240" />
    <vehicle id="down_65" type="typeNS" route="down" depart="242" color="1,0,0"/>
    <vehicle id="left_66" type="typeWE" route="left" depart="272" />
    <vehicle id="left_67" type="typeWE" route="left" depart="275" />
    <vehicle id="down_68" type="typeNS" route="down" depart="283" color="1,0,0"/>
    <vehicle id="right_69" type="typeWE" route="right" depart="284" />
    <vehicle id="right_70" type="typeWE" route="right" depart="286" />
    <vehicle id="right_71" type="typeWE" route="right" depart="288" />
    <vehicle id="right_72" type="typeWE" route="right" depart="291" />
    <vehicle id="right_73" type="typeWE" route="right" depart="294" />
    <vehicle id="down_74" type="typeNS" route="down" depart="302" color="1,0,0"/>
    <vehicle id="down_75" type="typeNS" route="down" depart="318" color="1,0,0"/>
    <vehicle id="right_76" type="typeWE" route="right" depart="322" />
    <vehicle id="down_77" type="typeNS" route="down" depart="323" color="1,0,0"/>
    <vehicle id="down_78" type="typeNS" route="down" depart="331" color="1,0,0"/>
    <vehicle id="down_79" type="typeNS" route="down" depart="337" color="1,0,0"/>
    <vehicle id="left_80" type="typeWE" route="left" depart="339" />
    <vehicle id="right_81" type="typeWE" route="right" depart="342" />
    <vehicle id="left_82" type="typeWE" route="left" depart="344" />
    <vehicle id="down_83" type="typeNS" route="down" depart="344" color="1,0,0"/>
    <vehicle id="left_84" type="typeWE" route="left" depart="346" />
    <vehicle id="down_85" type="typeNS" route="down" depart="349" color="1,0,0"/>
    <vehicle id="down_86" type="typeNS" route="down" depart="351" color="1,0,0"/>
    <vehicle id="down_87" type="typeNS" route="down" depart="353" color="1,0,0"/>
    <vehicle id="right_88" type="typeWE" route="right" depart="354" />
    <vehicle id="down_89" type="typeNS" route="down" depart="354" color="1,0,0"/>
    <vehicle id="down_90" type="typeNS" route="down" depart="363" color="1,0,0"/>
    <vehicle id="right_91" type="typeWE" route="right" depart="375" />
    <vehicle id="down_92" type="typeNS" route="down" depart="377" color="1,0,0"/>
    <vehicle id="down_93" type="typeNS" route="down" depart="379" color="1,0,0"/>
    <vehicle id="right_94" type="typeWE" route="right" depart="383" />
    <vehicle id="left_95" type="typeWE" route="left" depart="388" />
    <vehicle id="left_96" type="typeWE" route="left" depart="389" />
    <vehicle id="left_97" type="typeWE" route="left" depart="391" />
    <vehicle id="right_98" type="typeWE" route="right" depart="394" />
    <vehicle id="down_99" type="typeNS" route="down" depart="394" color="1,0,0"/>
    <vehicle id="right_100" type="typeWE" route="right" depart="395" />
    <vehicle id="down_101" type="typeNS" route="down" depart="397" color="1,0,0"/>
    <vehicle id="right_102" type="typeWE" route="right" depart="412" />
    <vehicle id="left_103" type="typeWE" route="left" depart="413" />
    <vehicle id="down_104" type="typeNS" route="down" depart="414" color="1,0,0"/>
    <vehicle id="left_105" type="typeWE" route="left" depart="415" />
    <vehicle id="left_106" type="typeWE" route="left" depart="420" />
    <vehicle id="down_107" type="typeNS" route="down" depart="426" color="1,0,0"/>
    <vehicle id="right_108" type="typeWE" route="right" depart="427" />
    <vehicle id="down_109" type="typeNS" route="down" depart="438" color="1,0,0"/>
    <vehicle id="down_110" type="typeNS" route="down" depart="440" color="1,0,0"/>
    <vehicle id="down_111" type="typeNS" route="down" depart="457" color="1,0,0"/>
    <vehicle id="right_112" type="typeWE" route="right" depart="458" />
    <vehicle id="down_113" type="typeNS" route="down" depart="459" color="1,0,0"/>
    <vehicle id="down_114" type="typeNS" route="down" depart="463" color="1,0,0"/>
    <vehicle id="right_115" type="typeWE" route="right" depart="464" />
    <vehicle id="right_116" type="typeWE" route="right" depart="467" />
    <vehicle id="left_117" type="typeWE" route="left" depart="469" />
    <vehicle id="left_118" type="typeWE" route="left" depart="472" />
    <vehicle id="right_119" type="typeWE" route="right" depart="473" />
    <vehicle id="left_120" type="typeWE" route="left" depart="476" />
    <vehicle id="right_121" type="typeWE" route="right" depart="479" />
    <vehicle id="right_122" type="typeWE" route="right" depart="482" />
    <vehicle id="left_123" type="typeWE" route="left" depart="483" />
    <vehicle id="right_124" type="typeWE" route="right" depart="484" />
    <vehicle id="left_125" type="typeWE" route="left" depart="492" />
    <vehicle id="right_126" type="typeWE" route="right" depart="494" />
    <vehicle id="left_127" type="typeWE" route="left" depart="496" />
    <vehicle id="down_128" type="typeNS" route="down" depart="498" color="1,0,0"/>
    <vehicle id="down_129" type="typeNS" route="down" depart="501" color="1,0,0"/>
    <vehicle id="right_130" type="typeWE" route="right" depart="502" />
    <vehicle id="left_131" type="typeWE" route="left" depart="514" />
    <vehicle id="down_132" type="typeNS" route="down" depart="518" color="1,0,0"/>
    <vehicle id="right_133" type="typeWE" route="right" depart="523" />
    <vehicle id="left_134" type="typeWE" route="left" depart="527" />
    <vehicle id="right_135" type="typeWE" route="right" depart="536" />
    <vehicle id="left_136" type="typeWE" route="left" depart="536" />
    <vehicle id="left_137" type="typeWE" route="left" depart="541" />
    <vehicle id="down_138" type="typeNS" route="down" depart="541" color="1,0,0"/>
    <vehicle id="left_139" type="typeWE" route="left" depart="552" />
    <vehicle id="left_140" type="typeWE" route="left" depart="554" />
    <vehicle id="down_141" type="typeNS" route="down" depart="559" color="1,0,0"/>
    <vehicle id="right_142" type="typeWE" route="right" depart="565" />
    <vehicle id="down_143" type="typeNS" route="down" depart="573" color="1,0,0"/>
    <vehicle id="left_144" type="typeWE" route="left" depart="578" />
    <vehicle id="left_145" type="typeWE" route="left" depart="579" />
    <vehicle id="left_146" type="typeWE" route="left" depart="582" />
    <vehicle id="down_147" type="typeNS" route="down" depart="600" color="1,0,0"/>
    <vehicle id="left_148" type="typeWE" route="left" depart="602" />
    <vehicle id="left_149" type="typeWE" route="left" depart="606" />
    <vehicle id="right_150" type="typeWE" route="right" depart="612" />
    <vehicle id="down_151" type="typeNS" route="down" depart="624" color="1,0,0"/>
    <vehicle id="down_152" type="typeNS" route="down" depart="625" color="1,0,0"/>
    <vehicle id="left_153" type="typeWE" route="left" depart="634" />
    <vehicle id="left_154" type="typeWE" route="left" depart="635" />
    <vehicle id="right_155" type="typeWE" route="right" depart="636" />
    <vehicle id="left_156" type="typeWE" route="left" depart="641" />
    <vehicle id="right_157" type="typeWE" route="right" depart="644" />
    <vehicle id="down_158" type="typeNS" route="down" depart="644" color="1,0,0"/>
    <vehicle id="down_159" type="typeNS" route="down" depart="645" color="1,0,0"/>
    <vehicle id="left_160" type="typeWE" route="left" depart="646" />
    <vehicle id="down_161" type="typeNS" route="down" depart="653" color="1,0,0"/>
    <vehicle id="right_162" type="typeWE" route="right" depart="654" />
    <vehicle id="left_163" type="typeWE" route="left" depart="659" />
    <vehicle id="left_164" type="typeWE" route="left" depart="660" />
    <vehicle id="left_165" type="typeWE" route="left" depart="661" />
    <vehicle id="left_166" type="typeWE" route="left" depart="663" />
    <vehicle id="right_167" type="typeWE" route="right" depart="668" />
    <vehicle id="left_168" type="typeWE" route="left" depart="683" />
    <vehicle id="down_169" type="typeNS" route="down" depart="700" color="1,0,0"/>
    <vehicle id="right_170" type="typeWE" route="right" depart="701" />
    <vehicle id="right_171" type="typeWE" route="right" depart="704" />
    <vehicle id="down_172" type="typeNS" route="down" depart="706" color="1,0,0"/>
    <vehicle id="left_173" type="typeWE" route="left" depart="707" />
    <vehicle id="down_174" type="typeNS" route="down" depart="708" color="1,0,0"/>
    <vehicle id="left_175" type="typeWE" route="left" depart="717" />
    <vehicle id="down_176" type="typeNS" route="down" depart="717" color="1,0,0"/>
    <vehicle id="right_177" type="typeWE" route="right" depart="720" />
    <vehicle id="down_178" type="typeNS" route="down" depart="720" color="1,0,0"/>
    <vehicle id="left_179" type="typeWE" route="left" depart="722" />
    <vehicle id="down_180" type="typeNS" route="down" depart="722" color="1,0,0"/>
    <vehicle id="right_181" type="typeWE" route="right" depart="724" />
    <vehicle id="down_182" type="typeNS" route="down" depart="726" color="1,0,0"/>
    <vehicle id="right_183" type="typeWE" route="right" depart="731" />
    <vehicle id="down_184" type="typeNS" route="down" depart="733" color="1,0,0"/>
    <vehicle id="right_185" type="typeWE" route="right" depart="738" />
    <vehicle id="left_186" type="typeWE" route="left" depart="740" />
    <vehicle id="left_187" type="typeWE" route="left" depart="743" />
    <vehicle id="right_188" type="typeWE" route="right" depart="744" />
    <vehicle id="right_189" type="typeWE" route="right" depart="746" />
    <vehicle id="left_190" type="typeWE" route="left" depart="749" />
    <vehicle id="down_191" type="typeNS" route="down" depart="750" color="1,0,0"/>
    <vehicle id="left_192" type="typeWE" route="left" depart="768" />
    <vehicle id="left_193" type="typeWE" route="left" depart="774" />
    <vehicle id="down_194" type="typeNS" route="down" depart="776" color="1,0,0"/>
    <vehicle id="down_195" type="typeNS" route="down" depart="780" color="1,0,0"/>
    <vehicle id="down_196" type="typeNS" route="down" depart="791" color="1,0,0"/>
    <vehicle id="down_197" type="typeNS" route="down" depart="794" color="1,0,0"/>
    <vehicle id="left_198" type="typeWE" route="left" depart="801" />
    <vehicle id="right_199" type="typeWE" route="right" depart="808" />
    <vehicle id="down_200" type="typeNS" route="down" depart="808" color="1,0,0"/>
    <vehicle id="right_201" type="typeWE" route="right" depart="812" />
    <vehicle id="left_202" type="typeWE" route="left" depart="812" />
    <vehicle id="down_203" type="typeNS" route="down" depart="817" color="1,0,0"/>
    <vehicle id="right_204" type="typeWE" route="right" depart="826" />
    <vehicle id="down_205" type="typeNS" route="down" depart="838" color="1,0,0"/>
    <vehicle id="right_206" type="typeWE" route="right" depart="841" />
    <vehicle id="left_207" type="typeWE" route="left" depart="845" />
    <vehicle id="down_208" type="typeNS" route="down" depart="847" color="1,0,0"/>
    <vehicle id="left_209" type="typeWE" route="left" depart="854" />
    <vehicle id="right_210" type="typeWE" route="right" depart="856" />
    <vehicle id="right_211" type="typeWE" route="right" depart="858" />
    <vehicle id="left_212" type="typeWE" route="left" depart="862" />
    <vehicle id="left_213" type="typeWE" route="left" depart="865" />
    <vehicle id="left_214" type="typeWE" route="left" depart="868" />
    <vehicle id="down_215" type="typeNS" route="down" depart="872" color="1,0,0"/>
    <vehicle id="right_216" type="typeWE" route="right" depart="879" />
    <vehicle id="left_217" type="typeWE" route="left" depart="879" />
    <vehicle id="right_218" type="typeWE" route="right" depart="880" />
    <vehicle id="left_219" type="typeWE" route="left" depart="880" />
    <vehicle id="down_220" type="typeNS" route="down" depart="882" color="1,0,0"/>
    <vehicle id="right_221" type="typeWE" route="right" depart="887" />
    <vehicle id="left_222" type="typeWE" route="left" depart="888" />
    <vehicle id="down_223" type="typeNS" route="down" depart="895" color="1,0,0"/>
    <vehicle id="down_224" type="typeNS" route="down" depart="896" color="1,0,0"/>
    <vehicle id="down_225" type="typeNS" route="down" depart="897" color="1,0,0"/>
    <vehicle id="down_226" type="typeNS" route="down" depart="901" color="1,0,0"/>
    <vehicle id="right_227" type="typeWE" route="right" depart="907" />
    <vehicle id="down_228" type="typeNS" route="down" depart="909" color="1,0,0"/>
    <vehicle id="down_229" type="typeNS" route="down" depart="911" color="1,0,0"/>
    <vehicle id="right_230" type="typeWE" route="right" depart="916" />
    <vehicle id="left_231" type="typeWE" route="left" depart="918" />
    <vehicle id="right_232" type="typeWE" route="right" depart="921" />
    <vehicle id="right_233" type="typeWE" route="right" depart="922" />
    <vehicle id="left_234" type="typeWE" route="left" depart="924" />
    <vehicle id="down_235" type="typeNS" route="down" depart="925" color="1,0,0"/>
    <vehicle id="down_236" type="typeNS" route="down" depart="929" color="1,0,0"/>
    <vehicle id="down_237" type="typeNS" route="down" depart="935" color="1,0,0"/>
    <vehicle id="right_238" type="typeWE" route="right" depart="939" />
    <vehicle id="down_239" type="typeNS" route="down" depart="941" color="1,0,0"/>
    <vehicle id="left_240" type="typeWE" route="left" depart="945" />
    <vehicle id="down_241" type="typeNS" route="down" depart="945" color="1,0,0"/>
    <vehicle id="right_242" type="typeWE" route="right" depart="948" />
    <vehicle id="right_243" type="typeWE" route="right" depart="950" />
    <vehicle id="left_244" type="typeWE" route="left" depart="952" />
    <vehicle id="left_245" type="typeWE" route="left" depart="954" />
    <vehicle id="down_246" type="typeNS" route="down" depart="961" color="1,0,0"/>
    <vehicle id="left_247" type="typeWE" route="left" depart="965" />
    <vehicle id="down_248" type="typeNS" route="down" depart="969" color="1,0,0"/>
    <vehicle id="left_249" type="typeWE" route="left" depart="973" />
    <vehicle id="down_250" type="typeNS" route="down" depart="974" color="1,0,0"/>
    <vehicle id="left_251" type="typeWE" route="left" depart="977" />
    <vehicle id="right_252" type="typeWE" route="right" depart="989" />
    <vehicle id="left_253" type="typeWE" route="left" depart="993" />
    <vehicle id="down_254" type="typeNS" route="down" depart="995" color="1,0,0"/>
    <vehicle id="down_255" type="typeNS" route="down" depart="996" color="1,0,0"/>
    <vehicle id="left_256" type="typeWE" route="left" depart="1001" />
    <vehicle id="right_257" type="typeWE" route="right" depart="1003" />
    <vehicle id="right_258" type="typeWE" route="right" depart="1005" />
    <vehicle id="left_259" type="typeWE" route="left" depart="1006" />
    <vehicle id="right_260" type="typeWE" route="right" depart="1011" />
    <vehicle id="left_261" type="typeWE" route="left" depart="1014" />
    <vehicle id="left_262" type="typeWE" route="left" depart="1015" />
    <vehicle id="down_263" type="typeNS" route="down" depart="1020" color="1,0,0"/>
    <vehicle id="left_264" type="typeWE" route="left" depart="1026" />
    <vehicle id="left_265" type="typeWE" route="left" depart="1034" />
    <vehicle id="right_266" type="typeWE" route="right" depart="1043" />
    <vehicle id="down_267" type="typeNS" route="down" depart="1044" color="1,0,0"/>
    <vehicle id="right_268" type="typeWE" route="right" depart="1047" />
    <vehicle id="right_269" type="typeWE" route="right" depart="1049" />
    <vehicle id="down_270" type="typeNS" route="down" depart="1056" color="1,0,0"/>
    <vehicle id="right_271" type="typeWE" route="right" depart="1061" />
    <vehicle id="right_272" type="typeWE" route="right" depart="1068" />
    <vehicle id="right_273" type="typeWE" route="right" depart="1069" />
    <vehicle id="left_274" type="typeWE" route="left" depart="1070" />
    <vehicle id="right_275" type="typeWE" route="right" depart="1078" />
    <vehicle id="left_276" type="typeWE" route="left" depart="1085" />
    <vehicle id="right_277" type="typeWE" route="right" depart="1093" />
    <vehicle id="left_278" type="typeWE" route="left" depart="1097" />
    <vehicle id="left_279" type="typeWE" route="left" depart="1099" />
    <vehicle id="left_280" type="typeWE" route="left" depart="1104" />
    <vehicle id="down_281" type="typeNS" route="down" depart="1108" color="1,0,0"/>
    <vehicle id="down_282" type="typeNS" route="down" depart="1109" color="1,0,0"/>
    <vehicle id="down_283" type="typeNS" route="down" depart="1121" color="1,0,0"/>
    <vehicle id="right_284" type="typeWE" route="right" depart="1123" />
    <vehicle id="left_285" type="typeWE" route="left" depart="1124" />
    <vehicle id="down_286" type="typeNS" route="down" depart="1133" color="1,0,0"/>
    <vehicle id="left_287" type="typeWE" route="left" depart="1135" />
    <vehicle id="left_288" type="typeWE" route="left" depart="1137" />
    <vehicle id="right_289" type="typeWE" route="right" depart="1141" />
    <vehicle id="left_290" type="typeWE" route="left" depart="1143" />
    <vehicle id="right_291" type="typeWE" route="right" depart="1146" />
    <vehicle id="left_292" type="typeWE" route="left" depart="1150" />
    <vehicle id="down_293" type="typeNS" route="down" depart="1153" color="1,0,0"/>
    <vehicle id="left_294" type="typeWE" route="left" depart="1156" />
    <vehicle id="down_295" type="typeNS" route="down" depart="1163" color="1,0,0"/>
    <vehicle id="down_296" type="typeNS" route="down" depart="1165" color="1,0,0"/>
    <vehicle id="right_297" type="typeWE" route="right" depart="1167" />
    <vehicle id="left_298" type="typeWE" route="left" depart="1172" />
    <vehicle id="down_299" type="typeNS" route="down" depart="1175" color="1,0,0"/>
    <vehicle id="left_300" type="typeWE" route="left" depart="1181" />
    <vehicle id="down_301" type="typeNS" route="down" depart="1189" color="1,0,0"/>
    <vehicle id="right_302" type="typeWE" route="right" depart="1208" />
    <vehicle id="right_303" type="typeWE" route="right" depart="1212" />
    <vehicle id="left_304" type="typeWE" route="left" depart="1218" />
    <vehicle id="down_305" type="typeNS" route="down" depart="1228" color="1,0,0"/>
    <vehicle id="left_306" type="typeWE" route="left" depart="1232" />
    <vehicle id="left_307" type="typeWE" route="left" depart="1237" />
    <vehicle id="down_308" type="typeNS" route="down" depart="1243" color="1,0,0"/>
    <vehicle id="left_309" type="typeWE" route="left" depart="1246" />
    <vehicle id="down_310" type="typeNS" route="down" depart="1246" color="1,0,0"/>
    <vehicle id="right_311" type="typeWE" route="right" depart="1252" />
    <vehicle id="left_312" type="typeWE" route="left" depart="1252" />
    <vehicle id="left_313" type="typeWE" route="left" depart="1255" />
    <vehicle id="right_314" type="typeWE" route="right" depart="1258" />
    <vehicle id="right_315" type="typeWE" route="right" depart="1267" />
    <vehicle id="right_316" type="typeWE" route="right" depart="1275" />
    <vehicle id="left_317" type="typeWE" route="left" depart="1281" />
    <vehicle id="left_318" type="typeWE" route="left" depart="1288" />
    <vehicle id="down_319" type="typeNS" route="down" depart="1288" color="1,0,0"/>
    <vehicle id="right_320" type="typeWE" route="right" depart="1289" />
    <vehicle id="down_321" type="typeNS" route="down" depart="1289" color="1,0,0"/>
    <vehicle id="left_322" type="typeWE" route="left" depart="1301" />
    <vehicle id="right_323" type="typeWE" route="right" depart="1302" />
    <vehicle id="right_324" type="typeWE" route="right" depart="1304" />
    <vehicle id="down_325" type="typeNS" route="down" depart="1312" color="1,0,0"/>
    <vehicle id="down_326" type="typeNS" route="down" depart="1317" color="1,0,0"/>
    <vehicle id="right_327" type="typeWE" route="right" depart="1318" />
    <vehicle id="left_328" type="typeWE" route="left" depart="1319" />
    <vehicle id="right_329" type="typeWE" route="right" depart="1320" />
    <vehicle id="right_330" type="typeWE" route="right" depart="1322" />
    <vehicle id="left_331" type="typeWE" route="left" depart="1323" />
    <vehicle id="left_332" type="typeWE" route="left" depart="1332" />
    <vehicle id="down_333" type="typeNS" route="down" depart="1336" color="1,0,0"/>
    <vehicle id="right_334" type="typeWE" route="right" depart="1340" />
    <vehicle id="left_335" type="typeWE" route="left" depart="1344" />
    <vehicle id="right_336" type="typeWE" route="right" depart="1357" />
    <vehicle id="down_337" type="typeNS" route="down" depart="1358" color="1,0,0"/>
    <vehicle id="left_338" type="typeWE" route="left" depart="1359" />
    <vehicle id="down_339" type="typeNS" route="down" depart="1359" color="1,0,0"/>
    <vehicle id="down_340" type="typeNS" route="down" depart="1364" color="1,0,0"/>
    <vehicle id="left_341" type="typeWE" route="left" depart="1366" />
    <vehicle id="right_342" type="typeWE" route="right" depart="1367" />
    <vehicle id="right_343" type="typeWE" route="right" depart="1370" />
    <vehicle id="left_344" type="typeWE" route="left" depart="1370" />
    <vehicle id="right_345" type="typeWE" route="right" depart="1375" />
    <vehicle id="down_346" type="typeNS" route="down" depart="1380" color="1,0,0"/>
    <vehicle id="left_347" type="typeWE" route="left" depart="1381" />
    <vehicle id="right_348" type="typeWE" route="right" depart="1384" />
    <vehicle id="right_349" type="typeWE" route="right" depart="1385" />
    <vehicle id="right_350" type="typeWE" route="right" depart="1386" />
    <vehicle id="left_351" type="typeWE" route="left" depart="1394" />
    <vehicle id="down_352" type="typeNS" route="down" depart="1398" color="1,0,0"/>
    <vehicle id="down_353" type="typeNS" route="down" depart="1402" color="1,0,0"/>
    <vehicle id="down_354" type="typeNS" route="down" depart="1416" color="1,0,0"/>
    <vehicle id="right_355" type="typeWE" route="right" depart="1420" />
    <vehicle id="right_356" type="typeWE" route="right" depart="1428" />
    <vehicle id="right_357" type="typeWE" route="right" depart="1433" />
    <vehicle id="down_358" type="typeNS" route="down" depart="1434" color="1,0,0"/>
    <vehicle id="down_359" type="typeNS" route="down" depart="1435" color="1,0,0"/>
    <vehicle id="down_360" type="typeNS" route="down" depart="1436" color="1,0,0"/>
    <vehicle id="down_361" type="typeNS" route="down" depart="1437" color="1,0,0"/>
    <vehicle id="left_362" type="typeWE" route="left" depart="1441" />
    <vehicle id="right_363" type="typeWE" route="right" depart="1450" />
    <vehicle id="down_364" type="typeNS" route="down" depart="1451" color="1,0,0"/>
    <vehicle id="right_365" type="typeWE" route="right" depart="1453" />
    <vehicle id="left_366" type="typeWE" route="left" depart="1454" />
    <vehicle id="down_367" type="typeNS" route="down" depart="1463" color="1,0,0"/>
    <vehicle id="right_368" type="typeWE" route="right" depart="1464" />
    <vehicle id="left_369" type="typeWE" route="left" depart="1470" />
    <vehicle id="right_370" type="typeWE" route="right" depart="1471" />
    <vehicle id="right_371" type="typeWE" route="right" depart="1475" />
    <vehicle id="left_372" type="typeWE" route="left" depart="1478" />
    <vehicle id="down_373" type="typeNS" route="down" depart="1483" color="1,0,0"/>
    <vehicle id="right_374" type="typeWE" route="right" depart="1484" />
    <vehicle id="right_375" type="typeWE" route="right" depart="1488" />
    <vehicle id="left_376" type="typeWE" route="left" depart="1497" />
    <vehicle id="right_377" type="typeWE" route="right" depart="1499" />
    <vehicle id="left_378" type="typeWE" route="left" depart="1500" />
    <vehicle id="down_379" type="typeNS" route="down" depart="1505" color="1,0,0"/>
    <vehicle id="down_380" type="typeNS" route="down" depart="1510" color="1,0,0"/>
    <vehicle id="left_381" type="typeWE" route="left" depart="1512" />
    <vehicle id="right_382" type="typeWE" route="right" depart="1513" />
    <vehicle id="down_383" type="typeNS" route="down" depart="1515" color="1,0,0"/>
    <vehicle id="right_384" type="typeWE" route="right" depart="1516" />
    <vehicle id="down_385" type="typeNS" route="down" depart="1533" color="1,0,0"/>
    <vehicle id="left_386" type="typeWE" route="left" depart="1536" />
    <vehicle id="down_387" type="typeNS" route="down" depart="1543" color="1,0,0"/>
    <vehicle id="right_388" type="typeWE" route="right" depart="1544" />
    <vehicle id="left_389" type="typeWE" route="left" depart="1547" />
    <vehicle id="down_390" type="typeNS" route="down" depart="1548" color="1,0,0"/>
    <vehicle id="left_391" type="typeWE" route="left" depart="1550" />
    <vehicle id="down_392" type="typeNS" route="down" depart="1553" color="1,0,0"/>
    <vehicle id="left_393" type="typeWE" route="left" depart="1554" />