<?xml version="1.0" encoding="UTF-8"?>

<!-- generated on Mon 02 Dec 2019 02:24:16 PM EST by Eclipse SUMO netedit Version 1.3.1
<configuration xmlns:xsi="http://www.w3.org/2001/XMLSchema-instance" xsi:noNamespaceSchemaLocation="http://sumo.dlr.de/xsd/netconvertConfiguration.xsd">

    <input>
        <sumo-net-file value="std_crossroad.net.xml"/>
    </input>

    <output>
        <output-file value="std_crossroad.net.xml"/>
        <plain-output-prefix value="/home/cshao/Documents/Fall2019/571/Project/DynamicTrafficLight/std_crossroad/data/std_crossroad"/>
    </output>

    <processing>
        <geometry.max-grade.fix value="false"/>
        <offset.disable-normalization value="true"/>
        <opposites.guess.fix-lengths value="true"/>
        <lefthand value="false"/>
    </processing>

    <junctions>
        <no-internal-links value="false"/>
        <no-turnarounds value="true"/>
        <junctions.corner-detail value="5"/>
        <junctions.limit-turn-speed value="5.5"/>
        <rectangular-lane-cut value="false"/>
    </junctions>

    <pedestrian>
        <walkingareas value="true"/>
    </pedestrian>

</configuration>
-->

<nodes version="1.3" xmlns:xsi="http://www.w3.org/2001/XMLSchema-instance" xsi:noNamespaceSchemaLocation="http://sumo.dlr.de/xsd/nodes_file.xsd">
    <location netOffset="0.00,0.00" convBoundary="-100.00,-100.00,100.00,100.00" origBoundary="-10000000000.00,-10000000000.00,10000000000.00,10000000000.00" projParameter="!"/>

    <node id="C" x="0.00" y="0.00" type="traffic_light" tl="C"/>
    <node id="E" x="100.00" y="0.00" type="unregulated"/>
    <node id="N" x="0.00" y="100.00" type="unregulated"/>
    <node id="S" x="0.00" y="-100.00" type="unregulated"/>
    <node id="W" x="-100.00" y="0.00" type="unregulated"/>
</nodes>
