<?xml version="1.0" encoding="UTF-8"?>

<!-- generated on Mon 02 Dec 2019 07:27:08 PM EST by Eclipse SUMO netedit Version 1.3.1
<configuration xmlns:xsi="http://www.w3.org/2001/XMLSchema-instance" xsi:noNamespaceSchemaLocation="http://sumo.dlr.de/xsd/netconvertConfiguration.xsd">

    <input>
        <sumo-net-file value="std_crossroad.net.xml"/>
    </input>

    <output>
        <output-file value="std_crossroad.net.xml"/>
    </output>

    <processing>
        <geometry.max-grade.fix value="false"/>
        <offset.disable-normalization value="true"/>
        <opposites.guess.fix-lengths value="true"/>
        <lefthand value="false"/>
    </processing>

    <junctions>
        <no-internal-links value="false"/>
        <no-turnarounds value="true"/>
        <junctions.corner-detail value="5"/>
        <junctions.limit-turn-speed value="5.5"/>
        <rectangular-lane-cut value="false"/>
    </junctions>

    <pedestrian>
        <walkingareas value="true"/>
    </pedestrian>

</configuration>
-->

<net version="1.3" junctionCornerDetail="5" walkingareas="true" limitTurnSpeed="5.50" xmlns:xsi="http://www.w3.org/2001/XMLSchema-instance" xsi:noNamespaceSchemaLocation="http://sumo.dlr.de/xsd/net_file.xsd">

    <location netOffset="0.00,0.00" convBoundary="-100.00,-100.00,100.00,100.00" origBoundary="-10000000000.00,-10000000000.00,10000000000.00,10000000000.00" projParameter="!"/>

    <edge id=":C_0" function="internal">
        <lane id=":C_0_0" index="0" disallow="pedestrian" speed="6.51" length="4.75" shape="-8.00,13.60 -8.35,11.15 -9.40,9.40 -9.60,9.28"/>
    </edge>
    <edge id=":C_1" function="internal">
        <lane id=":C_1_0" index="0" disallow="pedestrian" speed="13.89" length="27.20" shape="-4.80,13.60 -4.80,-13.60"/>
    </edge>
    <edge id=":C_2" function="internal">
        <lane id=":C_2_0" index="0" disallow="pedestrian" speed="10.36" length="13.42" shape="-1.60,13.60 -0.65,6.95 2.20,2.20 3.20,1.60"/>
    </edge>
    <edge id=":C_12" function="internal">
        <lane id=":C_12_0" index="0" disallow="pedestrian" speed="6.51" length="4.28" shape="-9.60,9.28 -11.15,8.35 -13.60,8.00"/>
    </edge>
    <edge id=":C_13" function="internal">
        <lane id=":C_13_0" index="0" disallow="pedestrian" speed="10.36" length="11.09" shape="3.20,1.60 6.95,-0.65 13.60,-1.60"/>
    </edge>
    <edge id=":C_3" function="internal">
        <lane id=":C_3_0" index="0" disallow="pedestrian" speed="6.51" length="4.75" shape="13.60,8.00 11.15,8.35 9.40,9.40 9.28,9.60"/>
    </edge>
    <edge id=":C_4" function="internal">
        <lane id=":C_4_0" index="0" disallow="pedestrian" speed="13.89" length="27.20" shape="13.60,4.80 -13.60,4.80"/>
    </edge>
    <edge id=":C_5" function="internal">
        <lane id=":C_5_0" index="0" disallow="pedestrian" speed="10.36" length="13.42" shape="13.60,1.60 6.95,0.65 2.20,-2.20 1.60,-3.20"/>
    </edge>
    <edge id=":C_14" function="internal">
        <lane id=":C_14_0" index="0" disallow="pedestrian" speed="6.51" length="4.28" shape="9.28,9.60 8.35,11.15 8.00,13.60"/>
    </edge>
    <edge id=":C_15" function="internal">
        <lane id=":C_15_0" index="0" disallow="pedestrian" speed="10.36" length="11.09" shape="1.60,-3.20 -0.65,-6.95 -1.60,-13.60"/>
    </edge>
    <edge id=":C_6" function="internal">
        <lane id=":C_6_0" index="0" disallow="pedestrian" speed="6.51" length="4.75" shape="8.00,-13.60 8.35,-11.15 9.40,-9.40 9.60,-9.28"/>
    </edge>
    <edge id=":C_7" function="internal">
        <lane id=":C_7_0" index="0" disallow="pedestrian" speed="13.89" length="27.20" shape="4.80,-13.60 4.80,13.60"/>
    </edge>
    <edge id=":C_8" function="internal">
        <lane id=":C_8_0" index="0" disallow="pedestrian" speed="10.36" length="13.42" shape="1.60,-13.60 0.65,-6.95 -2.20,-2.20 -3.20,-1.60"/>
    </edge>
    <edge id=":C_16" function="internal">
        <lane id=":C_16_0" index="0" disallow="pedestrian" speed="6.51" length="4.28" shape="9.60,-9.28 11.15,-8.35 13.60,-8.00"/>
    </edge>
    <edge id=":C_17" function="internal">
        <lane id=":C_17_0" index="0" disallow="pedestrian" speed="10.36" length="11.09" shape="-3.20,-1.60 -6.95,0.65 -13.60,1.60"/>
    </edge>
    <edge id=":C_9" function="internal">
        <lane id=":C_9_0" index="0" disallow="pedestrian" speed="6.51" length="4.75" shape="-13.60,-8.00 -11.15,-8.35 -9.40,-9.40 -9.28,-9.60"/>
    </edge>
    <edge id=":C_10" function="internal">
        <lane id=":C_10_0" index="0" disallow="pedestrian" speed="13.89" length="27.20" shape="-13.60,-4.80 13.60,-4.80"/>
    </edge>
    <edge id=":C_11" function="internal">
        <lane id=":C_11_0" index="0" disallow="pedestrian" speed="10.36" length="13.42" shape="-13.60,-1.60 -6.95,-0.65 -2.20,2.20 -1.60,3.20"/>
    </edge>
    <edge id=":C_18" function="internal">
        <lane id=":C_18_0" index="0" disallow="pedestrian" speed="6.51" length="4.28" shape="-9.28,-9.60 -8.35,-11.15 -8.00,-13.60"/>
    </edge>
    <edge id=":C_19" function="internal">
        <lane id=":C_19_0" index="0" disallow="pedestrian" speed="10.36" length="11.09" shape="-1.60,3.20 0.65,6.95 1.60,13.60"/>
    </edge>
    <edge id=":C_c0" function="crossing" crossingEdges="CN NC">
        <lane id=":C_c0_0" index="0" allow="pedestrian" speed="1.00" length="19.20" width="4.00" shape="9.60,11.60 -9.60,11.60"/>
    </edge>
    <edge id=":C_c1" function="crossing" crossingEdges="CE EC">
        <lane id=":C_c1_0" index="0" allow="pedestrian" speed="1.00" length="19.20" width="4.00" shape="11.60,-9.60 11.60,9.60"/>
    </edge>
    <edge id=":C_c2" function="crossing" crossingEdges="CS SC">
        <lane id=":C_c2_0" index="0" allow="pedestrian" speed="1.00" length="19.20" width="4.00" shape="-9.60,-11.60 9.60,-11.60"/>
    </edge>
    <edge id=":C_c3" function="crossing" crossingEdges="CW WC">
        <lane id=":C_c3_0" index="0" allow="pedestrian" speed="1.00" length="19.20" width="4.00" shape="-11.60,9.60 -11.60,-9.60"/>
    </edge>
    <edge id=":C_w0" function="walkingarea">
        <lane id=":C_w0_0" index="0" allow="pedestrian" speed="1.00" length="3.30" width="4.00" shape="-13.60,9.60 -13.60,11.60 -11.60,13.60 -9.60,13.60 -9.71,12.38 -10.04,11.38 -10.60,10.60 -11.38,10.04 -12.38,9.71"/>
    </edge>
    <edge id=":C_w1" function="walkingarea">
        <lane id=":C_w1_0" index="0" allow="pedestrian" speed="1.00" length="3.30" width="4.00" shape="9.60,13.60 11.60,13.60 13.60,11.60 13.60,9.60 12.38,9.71 11.38,10.04 10.60,10.60 10.04,11.38 9.71,12.38"/>
    </edge>
    <edge id=":C_w2" function="walkingarea">
        <lane id=":C_w2_0" index="0" allow="pedestrian" speed="1.00" length="3.30" width="4.00" shape="13.60,-9.60 13.60,-11.60 11.60,-13.60 9.60,-13.60 9.71,-12.38 10.04,-11.38 10.60,-10.60 11.38,-10.04 12.38,-9.71"/>
    </edge>
    <edge id=":C_w3" function="walkingarea">
        <lane id=":C_w3_0" index="0" allow="pedestrian" speed="1.00" length="3.30" width="4.00" shape="-9.60,-13.60 -11.60,-13.60 -13.60,-11.60 -13.60,-9.60 -12.38,-9.71 -11.38,-10.04 -10.60,-10.60 -10.04,-11.38 -9.71,-12.38"/>
    </edge>
    <edge id=":E_0" function="internal">
        <lane id=":E_0_0" index="0" disallow="pedestrian" speed="3.65" length="4.67" shape="100.00,-1.60 101.20,-0.80 101.60,0.00 101.20,0.80 100.00,1.60"/>
    </edge>
    <edge id=":E_w0" function="walkingarea">
        <lane id=":E_w0_0" index="0" allow="pedestrian" speed="1.00" length="21.20" width="2.00" shape="100.00,9.60 100.00,11.60 100.00,-11.60 100.00,-9.60"/>
    </edge>
    <edge id=":N_0" function="internal">
        <lane id=":N_0_0" index="0" disallow="pedestrian" speed="3.65" length="4.67" shape="1.60,100.00 0.80,101.20 0.00,101.60 -0.80,101.20 -1.60,100.00"/>
    </edge>
    <edge id=":N_w0" function="walkingarea">
        <lane id=":N_w0_0" index="0" allow="pedestrian" speed="1.00" length="21.20" width="2.00" shape="-9.60,100.00 -11.60,100.00 11.60,100.00 9.60,100.00"/>
    </edge>
    <edge id=":S_0" function="internal">
        <lane id=":S_0_0" index="0" disallow="pedestrian" speed="3.65" length="4.67" shape="-1.60,-100.00 -0.80,-101.20 0.00,-101.60 0.80,-101.20 1.60,-100.00"/>
    </edge>
    <edge id=":S_w0" function="walkingarea">
        <lane id=":S_w0_0" index="0" allow="pedestrian" speed="1.00" length="21.20" width="2.00" shape="9.60,-100.00 11.60,-100.00 -11.60,-100.00 -9.60,-100.00"/>
    </edge>
    <edge id=":W_0" function="internal">
        <lane id=":W_0_0" index="0" disallow="pedestrian" speed="3.65" length="4.67" shape="-100.00,1.60 -101.20,0.80 -101.60,0.00 -101.20,-0.80 -100.00,-1.60"/>
    </edge>
    <edge id=":W_w0" function="walkingarea">
        <lane id=":W_w0_0" index="0" allow="pedestrian" speed="1.00" length="21.20" width="2.00" shape="-100.00,-9.60 -100.00,-11.60 -100.00,11.60 -100.00,9.60"/>
    </edge>

    <edge id="CE" from="C" to="E" priority="1">
        <lane id="CE_0" index="0" allow="pedestrian" speed="13.89" length="86.40" width="2.00" shape="13.60,-10.60 100.00,-10.60"/>
        <lane id="CE_1" index="1" disallow="pedestrian" speed="13.89" length="86.40" shape="13.60,-8.00 100.00,-8.00"/>
        <lane id="CE_2" index="2" disallow="pedestrian" speed="13.89" length="86.40" shape="13.60,-4.80 100.00,-4.80"/>
        <lane id="CE_3" index="3" disallow="pedestrian" speed="13.89" length="86.40" shape="13.60,-1.60 100.00,-1.60"/>
    </edge>
    <edge id="CN" from="C" to="N" priority="-1" length="100.00">
        <lane id="CN_0" index="0" allow="pedestrian" speed="13.89" length="100.00" width="2.00" shape="10.60,13.60 10.60,100.00"/>
        <lane id="CN_1" index="1" disallow="pedestrian" speed="13.89" length="100.00" shape="8.00,13.60 8.00,100.00"/>
        <lane id="CN_2" index="2" disallow="pedestrian" speed="13.89" length="100.00" shape="4.80,13.60 4.80,100.00"/>
        <lane id="CN_3" index="3" disallow="pedestrian" speed="13.89" length="100.00" shape="1.60,13.60 1.60,100.00"/>
    </edge>
    <edge id="CS" from="C" to="S" priority="-1">
        <lane id="CS_0" index="0" allow="pedestrian" speed="13.89" length="86.40" width="2.00" shape="-10.60,-13.60 -10.60,-100.00"/>
        <lane id="CS_1" index="1" disallow="pedestrian" speed="13.89" length="86.40" shape="-8.00,-13.60 -8.00,-100.00"/>
        <lane id="CS_2" index="2" disallow="pedestrian" speed="13.89" length="86.40" shape="-4.80,-13.60 -4.80,-100.00"/>
        <lane id="CS_3" index="3" disallow="pedestrian" speed="13.89" length="86.40" shape="-1.60,-13.60 -1.60,-100.00"/>
    </edge>
    <edge id="CW" from="C" to="W" priority="1">
        <lane id="CW_0" index="0" allow="pedestrian" speed="13.89" length="86.40" width="2.00" shape="-13.60,10.60 -100.00,10.60"/>
        <lane id="CW_1" index="1" disallow="pedestrian" speed="13.89" length="86.40" shape="-13.60,8.00 -100.00,8.00"/>
        <lane id="CW_2" index="2" disallow="pedestrian" speed="13.89" length="86.40" shape="-13.60,4.80 -100.00,4.80"/>
        <lane id="CW_3" index="3" disallow="pedestrian" speed="13.89" length="86.40" shape="-13.60,1.60 -100.00,1.60"/>
    </edge>
    <edge id="EC" from="E" to="C" priority="1">
        <lane id="EC_0" index="0" allow="pedestrian" speed="13.89" length="86.40" width="2.00" shape="100.00,10.60 13.60,10.60"/>
        <lane id="EC_1" index="1" disallow="pedestrian" speed="13.89" length="86.40" shape="100.00,8.00 13.60,8.00"/>
        <lane id="EC_2" index="2" disallow="pedestrian" speed="13.89" length="86.40" shape="100.00,4.80 13.60,4.80"/>
        <lane id="EC_3" index="3" disallow="pedestrian" speed="13.89" length="86.40" shape="100.00,1.60 13.60,1.60"/>
    </edge>
    <edge id="NC" from="N" to="C" priority="-1" length="100.00">
        <lane id="NC_0" index="0" allow="pedestrian" speed="13.89" length="100.00" width="2.00" shape="-10.60,100.00 -10.60,13.60"/>
        <lane id="NC_1" index="1" disallow="pedestrian" speed="13.89" length="100.00" shape="-8.00,100.00 -8.00,13.60"/>
        <lane id="NC_2" index="2" disallow="pedestrian" speed="13.89" length="100.00" shape="-4.80,100.00 -4.80,13.60"/>
        <lane id="NC_3" index="3" disallow="pedestrian" speed="13.89" length="100.00" shape="-1.60,100.00 -1.60,13.60"/>
    </edge>
    <edge id="SC" from="S" to="C" priority="-1">
        <lane id="SC_0" index="0" allow="pedestrian" speed="13.89" length="86.40" width="2.00" shape="10.60,-100.00 10.60,-13.60"/>
        <lane id="SC_1" index="1" disallow="pedestrian" speed="13.89" length="86.40" shape="8.00,-100.00 8.00,-13.60"/>
        <lane id="SC_2" index="2" disallow="pedestrian" speed="13.89" length="86.40" shape="4.80,-100.00 4.80,-13.60"/>
        <lane id="SC_3" index="3" disallow="pedestrian" speed="13.89" length="86.40" shape="1.60,-100.00 1.60,-13.60"/>
    </edge>
    <edge id="WC" from="W" to="C" priority="1">
        <lane id="WC_0" index="0" allow="pedestrian" speed="13.89" length="86.40" width="2.00" shape="-100.00,-10.60 -13.60,-10.60"/>
        <lane id="WC_1" index="1" disallow="pedestrian" speed="13.89" length="86.40" shape="-100.00,-8.00 -13.60,-8.00"/>
        <lane id="WC_2" index="2" disallow="pedestrian" speed="13.89" length="86.40" shape="-100.00,-4.80 -13.60,-4.80"/>
        <lane id="WC_3" index="3" disallow="pedestrian" speed="13.89" length="86.40" shape="-100.00,-1.60 -13.60,-1.60"/>
    </edge>

    <tlLogic id="0" type="static" programID="0" offset="0">
        <phase duration="28" state="rrrgGgrrrgGgGrGr"/>
        <phase duration="5"  state="rrrgGgrrrgGgrrrr"/>
        <phase duration="3"  state="rrryygrrryygrrrr"/>
        <phase duration="6"  state="rrrrrGrrrrrGrrrr"/>
        <phase duration="3"  state="rrrrryrrrrryrrrr"/>
        <phase duration="28" state="gGgrrrgGgrrrrGrG"/>
        <phase duration="5"  state="gGgrrrgGgrrrrrrr"/>
        <phase duration="3"  state="yygrrryygrrrrrrr"/>
        <phase duration="6"  state="rrGrrrrrGrrrrrrr"/>
        <phase duration="3"  state="rryrrrrryrrrrrrr"/>
    </tlLogic>

    <junction id="C" type="traffic_light" x="0.00" y="0.00" incLanes="NC_0 NC_1 NC_2 NC_3 EC_0 EC_1 EC_2 EC_3 SC_0 SC_1 SC_2 SC_3 WC_0 WC_1 WC_2 WC_3 :C_w1_0 :C_w2_0 :C_w3_0 :C_w0_0" intLanes=":C_12_0 :C_1_0 :C_13_0 :C_14_0 :C_4_0 :C_15_0 :C_16_0 :C_7_0 :C_17_0 :C_18_0 :C_10_0 :C_19_0 :C_c0_0 :C_c1_0 :C_c2_0 :C_c3_0" shape="-11.60,13.60 11.60,13.60 11.82,12.49 12.10,12.10 12.49,11.82 12.99,11.66 13.60,11.60 13.60,-11.60 12.49,-11.82 12.10,-12.10 11.82,-12.49 11.66,-12.99 11.60,-13.60 -11.60,-13.60 -11.82,-12.49 -12.10,-12.10 -12.49,-11.82 -12.99,-11.66 -13.60,-11.60 -13.60,11.60 -12.49,11.82 -12.10,12.10 -11.82,12.49 -11.66,12.99">
        <request index="0"  response="1001000000000000" foes="1001000000000000" cont="1"/>
        <request index="1"  response="0101110000010000" foes="0101110100010000" cont="0"/>
        <request index="2"  response="0011100010110000" foes="0011100010110000" cont="1"/>
        <request index="3"  response="0011000000000000" foes="0011000000000000" cont="1"/>
        <request index="4"  response="1010000000000100" foes="1010100010000110" cont="0"/>
        <request index="5"  response="0110010100000100" foes="0110010110000100" cont="1"/>
        <request index="6"  response="0110000000000000" foes="0110000000000000" cont="1"/>
        <request index="7"  response="0101010000110000" foes="0101010000110100" cont="0"/>
        <request index="8"  response="1100110000100010" foes="1100110000100010" cont="1"/>
        <request index="9"  response="1100000000000000" foes="1100000000000000" cont="1"/>
        <request index="10" response="1010000100000000" foes="1010000110100010" cont="0"/>
        <request index="11" response="1001000100010100" foes="1001000100010110" cont="1"/>
        <request index="12" response="0000000000000000" foes="0000100010001111" cont="0"/>
        <request index="13" response="0000000000000000" foes="0000010001111100" cont="0"/>
        <request index="14" response="0000000000000000" foes="0000001111100010" cont="0"/>
        <request index="15" response="0000000000000000" foes="0000111100010001" cont="0"/>
    </junction>
    <junction id="E" type="unregulated" x="100.00" y="0.00" incLanes="CE_0 CE_1 CE_2 CE_3" intLanes=":E_0_0" shape="100.00,0.00 100.00,-11.60 100.00,0.00"/>
    <junction id="N" type="unregulated" x="0.00" y="100.00" incLanes="CN_0 CN_1 CN_2 CN_3" intLanes=":N_0_0" shape="0.00,100.00 11.60,100.00 0.00,100.00"/>
    <junction id="S" type="unregulated" x="0.00" y="-100.00" incLanes="CS_0 CS_1 CS_2 CS_3" intLanes=":S_0_0" shape="0.00,-100.00 -11.60,-100.00 0.00,-100.00"/>
    <junction id="W" type="unregulated" x="-100.00" y="0.00" incLanes="CW_0 CW_1 CW_2 CW_3" intLanes=":W_0_0" shape="-100.00,0.00 -100.00,11.60 -100.00,0.00"/>

    <junction id=":C_12_0" type="internal" x="-9.60" y="9.28" incLanes=":C_0_0" intLanes=":C_c0_0 :C_c3_0"/>
    <junction id=":C_13_0" type="internal" x="3.20" y="1.60" incLanes=":C_2_0 SC_2" intLanes=":C_4_0 :C_5_0 :C_7_0 :C_11_0 :C_c0_0 :C_c1_0"/>
    <junction id=":C_14_0" type="internal" x="9.28" y="9.60" incLanes=":C_3_0" intLanes=":C_c0_0 :C_c1_0"/>
    <junction id=":C_15_0" type="internal" x="1.60" y="-3.20" incLanes=":C_5_0 WC_2" intLanes=":C_2_0 :C_7_0 :C_8_0 :C_10_0 :C_c1_0 :C_c2_0"/>
    <junction id=":C_16_0" type="internal" x="9.60" y="-9.28" incLanes=":C_6_0" intLanes=":C_c1_0 :C_c2_0"/>
    <junction id=":C_17_0" type="internal" x="-3.20" y="-1.60" incLanes=":C_8_0 NC_2" intLanes=":C_1_0 :C_5_0 :C_10_0 :C_11_0 :C_c2_0 :C_c3_0"/>
    <junction id=":C_18_0" type="internal" x="-9.28" y="-9.60" incLanes=":C_9_0" intLanes=":C_c2_0 :C_c3_0"/>
    <junction id=":C_19_0" type="internal" x="-1.60" y="3.20" incLanes=":C_11_0 EC_2" intLanes=":C_1_0 :C_2_0 :C_4_0 :C_8_0 :C_c0_0 :C_c3_0"/>

    <connection from="CE" to="EC" fromLane="3" toLane="3" via=":E_0_0" dir="t" state="M"/>
    <connection from="CN" to="NC" fromLane="3" toLane="3" via=":N_0_0" dir="t" state="M"/>
    <connection from="CS" to="SC" fromLane="3" toLane="3" via=":S_0_0" dir="t" state="M"/>
    <connection from="CW" to="WC" fromLane="3" toLane="3" via=":W_0_0" dir="t" state="M"/>
    <connection from="EC" to="CN" fromLane="1" toLane="1" via=":C_3_0" tl="0" linkIndex="3" dir="r" state="o"/>
    <connection from="EC" to="CW" fromLane="2" toLane="2" via=":C_4_0" tl="0" linkIndex="4" dir="s" state="o"/>
    <connection from="EC" to="CS" fromLane="3" toLane="3" via=":C_5_0" tl="0" linkIndex="5" dir="l" state="o"/>
    <connection from="NC" to="CW" fromLane="1" toLane="1" via=":C_0_0" tl="0" linkIndex="0" dir="r" state="o"/>
    <connection from="NC" to="CS" fromLane="2" toLane="2" via=":C_1_0" tl="0" linkIndex="1" dir="s" state="o"/>
    <connection from="NC" to="CE" fromLane="3" toLane="3" via=":C_2_0" tl="0" linkIndex="2" dir="l" state="o"/>
    <connection from="SC" to="CE" fromLane="1" toLane="1" via=":C_6_0" tl="0" linkIndex="6" dir="r" state="o"/>
    <connection from="SC" to="CN" fromLane="2" toLane="2" via=":C_7_0" tl="0" linkIndex="7" dir="s" state="o"/>
    <connection from="SC" to="CW" fromLane="3" toLane="3" via=":C_8_0" tl="0" linkIndex="8" dir="l" state="o"/>
    <connection from="WC" to="CS" fromLane="1" toLane="1" via=":C_9_0" tl="0" linkIndex="9" dir="r" state="o"/>
    <connection from="WC" to="CE" fromLane="2" toLane="2" via=":C_10_0" tl="0" linkIndex="10" dir="s" state="o"/>
    <connection from="WC" to="CN" fromLane="3" toLane="3" via=":C_11_0" tl="0" linkIndex="11" dir="l" state="o"/>

    <connection from=":C_0" to="CW" fromLane="0" toLane="1" via=":C_12_0" dir="r" state="m"/>
    <connection from=":C_12" to="CW" fromLane="0" toLane="1" dir="r" state="M"/>
    <connection from=":C_1" to="CS" fromLane="0" toLane="2" dir="s" state="M"/>
    <connection from=":C_2" to="CE" fromLane="0" toLane="3" via=":C_13_0" dir="l" state="m"/>
    <connection from=":C_13" to="CE" fromLane="0" toLane="3" dir="l" state="M"/>
    <connection from=":C_3" to="CN" fromLane="0" toLane="1" via=":C_14_0" dir="r" state="m"/>
    <connection from=":C_14" to="CN" fromLane="0" toLane="1" dir="r" state="M"/>
    <connection from=":C_4" to="CW" fromLane="0" toLane="2" dir="s" state="M"/>
    <connection from=":C_5" to="CS" fromLane="0" toLane="3" via=":C_15_0" dir="l" state="m"/>
    <connection from=":C_15" to="CS" fromLane="0" toLane="3" dir="l" state="M"/>
    <connection from=":C_6" to="CE" fromLane="0" toLane="1" via=":C_16_0" dir="r" state="m"/>
    <connection from=":C_16" to="CE" fromLane="0" toLane="1" dir="r" state="M"/>
    <connection from=":C_7" to="CN" fromLane="0" toLane="2" dir="s" state="M"/>
    <connection from=":C_8" to="CW" fromLane="0" toLane="3" via=":C_17_0" dir="l" state="m"/>
    <connection from=":C_17" to="CW" fromLane="0" toLane="3" dir="l" state="M"/>
    <connection from=":C_9" to="CS" fromLane="0" toLane="1" via=":C_18_0" dir="r" state="m"/>
    <connection from=":C_18" to="CS" fromLane="0" toLane="1" dir="r" state="M"/>
    <connection from=":C_10" to="CE" fromLane="0" toLane="2" dir="s" state="M"/>
    <connection from=":C_11" to="CN" fromLane="0" toLane="3" via=":C_19_0" dir="l" state="m"/>
    <connection from=":C_19" to="CN" fromLane="0" toLane="3" dir="l" state="M"/>
    <connection from=":E_0" to="EC" fromLane="0" toLane="3" dir="t" state="M"/>
    <connection from=":N_0" to="NC" fromLane="0" toLane="3" dir="t" state="M"/>
    <connection from=":S_0" to="SC" fromLane="0" toLane="3" dir="t" state="M"/>
    <connection from=":W_0" to="WC" fromLane="0" toLane="3" dir="t" state="M"/>

    <connection from=":C_c0" to=":C_w0" fromLane="0" toLane="0" dir="s" state="M"/>
    <connection from=":C_c1" to=":C_w1" fromLane="0" toLane="0" dir="s" state="M"/>
    <connection from=":C_c2" to=":C_w2" fromLane="0" toLane="0" dir="s" state="M"/>
    <connection from=":C_c3" to=":C_w3" fromLane="0" toLane="0" dir="s" state="M"/>
    <connection from=":C_w0" to=":C_c3" fromLane="0" toLane="0" tl="0" linkIndex="15" dir="s" state="M"/>
    <connection from=":C_w0" to="CW" fromLane="0" toLane="0" dir="s" state="M"/>
    <connection from="NC" to=":C_w0" fromLane="0" toLane="0" dir="s" state="M"/>
    <connection from=":C_w1" to=":C_c0" fromLane="0" toLane="0" tl="0" linkIndex="12" dir="s" state="M"/>
    <connection from=":C_w1" to="CN" fromLane="0" toLane="0" dir="s" state="M"/>
    <connection from="EC" to=":C_w1" fromLane="0" toLane="0" dir="s" state="M"/>
    <connection from=":C_w2" to=":C_c1" fromLane="0" toLane="0" tl="0" linkIndex="13" dir="s" state="M"/>
    <connection from=":C_w2" to="CE" fromLane="0" toLane="0" dir="s" state="M"/>
    <connection from="SC" to=":C_w2" fromLane="0" toLane="0" dir="s" state="M"/>
    <connection from=":C_w3" to=":C_c2" fromLane="0" toLane="0" tl="0" linkIndex="14" dir="s" state="M"/>
    <connection from=":C_w3" to="CS" fromLane="0" toLane="0" dir="s" state="M"/>
    <connection from="WC" to=":C_w3" fromLane="0" toLane="0" dir="s" state="M"/>
    <connection from=":E_w0" to="EC" fromLane="0" toLane="0" dir="s" state="M"/>
    <connection from="CE" to=":E_w0" fromLane="0" toLane="0" dir="s" state="M"/>
    <connection from=":N_w0" to="NC" fromLane="0" toLane="0" dir="s" state="M"/>
    <connection from="CN" to=":N_w0" fromLane="0" toLane="0" dir="s" state="M"/>
    <connection from=":S_w0" to="SC" fromLane="0" toLane="0" dir="s" state="M"/>
    <connection from="CS" to=":S_w0" fromLane="0" toLane="0" dir="s" state="M"/>
    <connection from=":W_w0" to="WC" fromLane="0" toLane="0" dir="s" state="M"/>
    <connection from="CW" to=":W_w0" fromLane="0" toLane="0" dir="s" state="M"/>
</net>
