<additional xmlns:xsi="http://www.w3.org/2001/XMLSchema-instance" xsi:noNamespaceSchemaLocation="http://sumo.dlr.de/xsd/additional_file.xsd">
    <laneAreaDetector file="std_crossroad.detout" freq="60" friendlyPos="x" id="e2det_EC_1" lane="EC_1" length="50" pos="35.400000000000006"/>
    <laneAreaDetector file="std_crossroad.detout" freq="60" friendlyPos="x" id="e2det_EC_2" lane="EC_2" length="50" pos="35.400000000000006"/>
    <laneAreaDetector file="std_crossroad.detout" freq="60" friendlyPos="x" id="e2det_EC_3" lane="EC_3" length="50" pos="35.400000000000006"/>
    <laneAreaDetector file="std_crossroad.detout" freq="60" friendlyPos="x" id="e2det_NC_1" lane="NC_1" length="50" pos="49.0"/>
    <laneAreaDetector file="std_crossroad.detout" freq="60" friendlyPos="x" id="e2det_NC_2" lane="NC_2" length="50" pos="49.0"/>
    <laneAreaDetector file="std_crossroad.detout" freq="60" friendlyPos="x" id="e2det_NC_3" lane="NC_3" length="50" pos="49.0"/>
    <laneAreaDetector file="std_crossroad.detout" freq="60" friendlyPos="x" id="e2det_SC_1" lane="SC_1" length="50" pos="35.400000000000006"/>
    <laneAreaDetector file="std_crossroad.detout" freq="60" friendlyPos="x" id="e2det_SC_2" lane="SC_2" length="50" pos="35.400000000000006"/>
    <laneAreaDetector file="std_crossroad.detout" freq="60" friendlyPos="x" id="e2det_SC_3" lane="SC_3" length="50" pos="35.400000000000006"/>
    <laneAreaDetector file="std_crossroad.detout" freq="60" friendlyPos="x" id="e2det_WC_1" lane="WC_1" length="50" pos="35.400000000000006"/>
    <laneAreaDetector file="std_crossroad.detout" freq="60" friendlyPos="x" id="e2det_WC_2" lane="WC_2" length="50" pos="35.400000000000006"/>
    <laneAreaDetector file="std_crossroad.detout" freq="60" friendlyPos="x" id="e2det_WC_3" lane="WC_3" length="50" pos="35.400000000000006"/>
</additional>
