<?xml version="1.0" encoding="UTF-8"?>

<!-- generated on Mon 02 Dec 2019 02:24:16 PM EST by Eclipse SUMO netedit Version 1.3.1
<configuration xmlns:xsi="http://www.w3.org/2001/XMLSchema-instance" xsi:noNamespaceSchemaLocation="http://sumo.dlr.de/xsd/netconvertConfiguration.xsd">

    <input>
        <sumo-net-file value="std_crossroad.net.xml"/>
    </input>

    <output>
        <output-file value="std_crossroad.net.xml"/>
        <plain-output-prefix value="/home/cshao/Documents/Fall2019/571/Project/DynamicTrafficLight/std_crossroad/data/std_crossroad"/>
    </output>

    <processing>
        <geometry.max-grade.fix value="false"/>
        <offset.disable-normalization value="true"/>
        <opposites.guess.fix-lengths value="true"/>
        <lefthand value="false"/>
    </processing>

    <junctions>
        <no-internal-links value="false"/>
        <no-turnarounds value="true"/>
        <junctions.corner-detail value="5"/>
        <junctions.limit-turn-speed value="5.5"/>
        <rectangular-lane-cut value="false"/>
    </junctions>

    <pedestrian>
        <walkingareas value="true"/>
    </pedestrian>

</configuration>
-->

<tlLogics version="1.3" xmlns:xsi="http://www.w3.org/2001/XMLSchema-instance" xsi:noNamespaceSchemaLocation="http://sumo.dlr.de/xsd/tllogic_file.xsd">
    <tlLogic id="C" type="static" programID="0" offset="0">
        <phase duration="37" state="rrrrrrgGGGggrrrrrrgGGGgGrGr"/>
        <phase duration="5"  state="rrrrrrgGGGggrrrrrrgGGGgrrrr"/>
        <phase duration="3"  state="rrrrrryyyyyyrrrrrryyyyyrrrr"/>
        <phase duration="37" state="gGGGggrrrrrrgGGGggrrrrrrGrG"/>
        <phase duration="5"  state="gGGGggrrrrrrgGGGggrrrrrrrrr"/>
        <phase duration="3"  state="yyyyyyrrrrrryyyyyyrrrrrrrrr"/>
    </tlLogic>

    <connection from="EC" to="gneE2" fromLane="1" toLane="1" tl="C" linkIndex="6"/>
    <connection from="EC" to="CW" fromLane="2" toLane="2" tl="C" linkIndex="8"/>
    <connection from="EC" to="gneE3" fromLane="3" toLane="3" tl="C" linkIndex="10"/>
    <connection from="WC" to="gneE3" fromLane="1" toLane="1" tl="C" linkIndex="18"/>
    <connection from="WC" to="CE" fromLane="2" toLane="2" tl="C" linkIndex="20"/>
    <connection from="WC" to="gneE2" fromLane="3" toLane="3" tl="C" linkIndex="22"/>
    <connection from="gneE0" to="CW" fromLane="1" toLane="1" tl="C" linkIndex="0"/>
    <connection from="gneE0" to="gneE3" fromLane="2" toLane="2" tl="C" linkIndex="2"/>
    <connection from="gneE0" to="CE" fromLane="3" toLane="3" tl="C" linkIndex="4"/>
    <connection from="gneE1" to="CE" fromLane="1" toLane="1" tl="C" linkIndex="12"/>
    <connection from="gneE1" to="gneE2" fromLane="2" toLane="2" tl="C" linkIndex="14"/>
    <connection from="gneE1" to="CW" fromLane="3" toLane="3" tl="C" linkIndex="16"/>
</tlLogics>
