<?xml version="1.0" encoding="UTF-8"?>

<!-- generated on Mon 02 Dec 2019 02:24:16 PM EST by Eclipse SUMO netedit Version 1.3.1
<configuration xmlns:xsi="http://www.w3.org/2001/XMLSchema-instance" xsi:noNamespaceSchemaLocation="http://sumo.dlr.de/xsd/netconvertConfiguration.xsd">

    <input>
        <sumo-net-file value="std_crossroad.net.xml"/>
    </input>

    <output>
        <output-file value="std_crossroad.net.xml"/>
        <plain-output-prefix value="/home/cshao/Documents/Fall2019/571/Project/DynamicTrafficLight/std_crossroad/data/std_crossroad"/>
    </output>

    <processing>
        <geometry.max-grade.fix value="false"/>
        <offset.disable-normalization value="true"/>
        <opposites.guess.fix-lengths value="true"/>
        <lefthand value="false"/>
    </processing>

    <junctions>
        <no-internal-links value="false"/>
        <no-turnarounds value="true"/>
        <junctions.corner-detail value="5"/>
        <junctions.limit-turn-speed value="5.5"/>
        <rectangular-lane-cut value="false"/>
    </junctions>

    <pedestrian>
        <walkingareas value="true"/>
    </pedestrian>

</configuration>
-->

<edges version="1.3" xmlns:xsi="http://www.w3.org/2001/XMLSchema-instance" xsi:noNamespaceSchemaLocation="http://sumo.dlr.de/xsd/edges_file.xsd">
    <edge id="CE" from="C" to="E" priority="1" numLanes="4" speed="13.89">
        <lane index="0" allow="pedestrian" width="2.00"/>
        <lane index="1" disallow="pedestrian"/>
        <lane index="2" disallow="pedestrian"/>
        <lane index="3" disallow="pedestrian"/>
    </edge>
    <edge id="CW" from="C" to="W" priority="1" numLanes="4" speed="13.89">
        <lane index="0" allow="pedestrian" width="2.00"/>
        <lane index="1" disallow="pedestrian"/>
        <lane index="2" disallow="pedestrian"/>
        <lane index="3" disallow="pedestrian"/>
    </edge>
    <edge id="EC" from="E" to="C" priority="1" numLanes="4" speed="13.89">
        <lane index="0" allow="pedestrian" width="2.00"/>
        <lane index="1" disallow="pedestrian"/>
        <lane index="2" disallow="pedestrian"/>
        <lane index="3" disallow="pedestrian"/>
    </edge>
    <edge id="WC" from="W" to="C" priority="1" numLanes="4" speed="13.89">
        <lane index="0" allow="pedestrian" width="2.00"/>
        <lane index="1" disallow="pedestrian"/>
        <lane index="2" disallow="pedestrian"/>
        <lane index="3" disallow="pedestrian"/>
    </edge>
    <edge id="gneE0" from="N" to="C" priority="-1" numLanes="4" speed="13.89" length="100.00">
        <lane index="0" allow="pedestrian" width="2.00"/>
        <lane index="1" disallow="pedestrian"/>
        <lane index="2" disallow="pedestrian"/>
        <lane index="3" disallow="pedestrian"/>
    </edge>
    <edge id="gneE1" from="S" to="C" priority="-1" numLanes="4" speed="13.89">
        <lane index="0" allow="pedestrian" width="2.00"/>
        <lane index="1" disallow="pedestrian"/>
        <lane index="2" disallow="pedestrian"/>
        <lane index="3" disallow="pedestrian"/>
    </edge>
    <edge id="gneE2" from="C" to="N" priority="-1" numLanes="4" speed="13.89" length="100.00">
        <lane index="0" allow="pedestrian" width="2.00"/>
        <lane index="1" disallow="pedestrian"/>
        <lane index="2" disallow="pedestrian"/>
        <lane index="3" disallow="pedestrian"/>
    </edge>
    <edge id="gneE3" from="C" to="S" priority="-1" numLanes="4" speed="13.89">
        <lane index="0" allow="pedestrian" width="2.00"/>
        <lane index="1" disallow="pedestrian"/>
        <lane index="2" disallow="pedestrian"/>
        <lane index="3" disallow="pedestrian"/>
    </edge>
</edges>
