<?xml version="1.0" encoding="UTF-8"?>

<!-- generated on Mon 02 Dec 2019 03:38:35 PM EST by Eclipse SUMO netedit Version 1.3.1
<configuration xmlns:xsi="http://www.w3.org/2001/XMLSchema-instance" xsi:noNamespaceSchemaLocation="http://sumo.dlr.de/xsd/netconvertConfiguration.xsd">

    <input>
        <sumo-net-file value="std_crossroad.net.xml"/>
    </input>

    <output>
        <output-file value="std_crossroad.net.xml"/>
        <plain-output-prefix value="/home/cshao/Documents/Fall2019/571/Project/DynamicTrafficLight/std_crossroad/std_crossroad"/>
    </output>

    <processing>
        <geometry.max-grade.fix value="false"/>
        <offset.disable-normalization value="true"/>
        <opposites.guess.fix-lengths value="true"/>
        <lefthand value="false"/>
    </processing>

    <junctions>
        <no-internal-links value="false"/>
        <no-turnarounds value="true"/>
        <junctions.corner-detail value="5"/>
        <junctions.limit-turn-speed value="5.5"/>
        <rectangular-lane-cut value="false"/>
    </junctions>

    <pedestrian>
        <walkingareas value="true"/>
    </pedestrian>

    <netedit>
        <additional-files value="std_crossroad.det.xml"/>
    </netedit>

</configuration>
-->

<connections version="1.3" xmlns:xsi="http://www.w3.org/2001/XMLSchema-instance" xsi:noNamespaceSchemaLocation="http://sumo.dlr.de/xsd/connections_file.xsd">
    <connection from="CE" to="EC" fromLane="3" toLane="3"/>

    <connection from="CN" to="NC" fromLane="3" toLane="3"/>

    <connection from="CS" to="SC" fromLane="3" toLane="3"/>

    <connection from="CW" to="WC" fromLane="3" toLane="3"/>

    <connection from="EC" to="CN" fromLane="1" toLane="1"/>
    <connection from="EC" to="CW" fromLane="2" toLane="2"/>
    <connection from="EC" to="CS" fromLane="3" toLane="3"/>

    <connection from="NC" to="CW" fromLane="1" toLane="1"/>
    <connection from="NC" to="CS" fromLane="2" toLane="2"/>
    <connection from="NC" to="CE" fromLane="3" toLane="3"/>

    <connection from="SC" to="CE" fromLane="1" toLane="1"/>
    <connection from="SC" to="CN" fromLane="2" toLane="2"/>
    <connection from="SC" to="CW" fromLane="3" toLane="3"/>

    <connection from="WC" to="CS" fromLane="1" toLane="1"/>
    <connection from="WC" to="CE" fromLane="2" toLane="2"/>
    <connection from="WC" to="CN" fromLane="3" toLane="3"/>

    <crossing node="C" edges="CN NC" priority="1" width="4.00" linkIndex="12"/>
    <crossing node="C" edges="CE EC" priority="1" width="4.00" linkIndex="13"/>
    <crossing node="C" edges="CS SC" priority="1" width="4.00" linkIndex="14"/>
    <crossing node="C" edges="CW WC" priority="1" width="4.00" linkIndex="15"/>
</connections>
