<?xml version="1.0" encoding="UTF-8"?>
<!-- generated on 2019-12-02 14:49:15.380472 by $Id$
  options: -n std_crossroad.net.xml -o std_crossroad.rou.xml -e 30 <doubleminus>binomial 3 -p 0.8
-->
<routes xmlns:xsi="http://www.w3.org/2001/XMLSchema-instance" xsi:noNamespaceSchemaLocation="http://sumo.dlr.de/xsd/routes_file.xsd">
    <trip id="0" depart="0.00" from="gneE0" to="gneE2"/>
    <trip id="1" depart="0.00" from="WC" to="gneE2"/>
    <trip id="2" depart="1.00" from="gneE0" to="CW"/>
    <trip id="3" depart="1.00" from="gneE0" to="gneE2"/>
    <trip id="4" depart="2.00" from="WC" to="gneE3"/>
    <trip id="5" depart="2.00" from="EC" to="CE"/>
    <trip id="6" depart="4.00" from="gneE1" to="gneE3"/>
    <trip id="7" depart="5.00" from="EC" to="gneE3"/>
    <trip id="8" depart="5.00" from="EC" to="CE"/>
    <trip id="9" depart="6.00" from="gneE1" to="gneE2"/>
    <trip id="10" depart="6.00" from="gneE0" to="CE"/>
    <trip id="11" depart="6.00" from="WC" to="gneE3"/>
    <trip id="12" depart="8.00" from="gneE0" to="CE"/>
    <trip id="13" depart="9.00" from="gneE0" to="gneE3"/>
    <trip id="14" depart="9.00" from="EC" to="gneE2"/>
    <trip id="15" depart="10.00" from="gneE1" to="gneE2"/>
    <trip id="16" depart="10.00" from="gneE1" to="gneE2"/>
    <trip id="17" depart="13.00" from="EC" to="CE"/>
    <trip id="18" depart="13.00" from="WC" to="CE"/>
    <trip id="19" depart="13.00" from="gneE0" to="gneE3"/>
    <trip id="20" depart="16.00" from="gneE1" to="CW"/>
    <trip id="21" depart="16.00" from="EC" to="CE"/>
    <trip id="22" depart="17.00" from="gneE1" to="CE"/>
    <trip id="23" depart="18.00" from="gneE0" to="CE"/>
    <trip id="24" depart="19.00" from="WC" to="gneE2"/>
    <trip id="25" depart="19.00" from="gneE1" to="CE"/>
    <trip id="26" depart="21.00" from="WC" to="CE"/>
    <trip id="27" depart="22.00" from="WC" to="CE"/>
    <trip id="28" depart="22.00" from="WC" to="gneE2"/>
    <trip id="29" depart="23.00" from="gneE1" to="CW"/>
    <trip id="30" depart="24.00" from="gneE0" to="gneE3"/>
    <trip id="31" depart="25.00" from="EC" to="CE"/>
    <trip id="32" depart="25.00" from="gneE1" to="CW"/>
    <trip id="33" depart="27.00" from="gneE0" to="CW"/>
    <trip id="34" depart="28.00" from="EC" to="CW"/>
    <trip id="35" depart="28.00" from="WC" to="CW"/>
    <trip id="36" depart="29.00" from="gneE1" to="CE"/>
</routes>
