<?xml version="1.0" encoding="UTF-8"?>

<!-- generated on Mon 02 Dec 2019 07:27:32 PM EST by Eclipse SUMO netedit Version 1.3.1
<configuration xmlns:xsi="http://www.w3.org/2001/XMLSchema-instance" xsi:noNamespaceSchemaLocation="http://sumo.dlr.de/xsd/netconvertConfiguration.xsd">

    <input>
        <sumo-net-file value="std_crossroad.net.xml"/>
    </input>

    <output>
        <output-file value="std_crossroad.net.xml"/>
        <plain-output-prefix value="/home/cshao/Documents/Fall2019/571/Project/DynamicTrafficLight/std_crossroad/std_crossroad"/>
    </output>

    <processing>
        <geometry.max-grade.fix value="false"/>
        <offset.disable-normalization value="true"/>
        <opposites.guess.fix-lengths value="true"/>
        <lefthand value="false"/>
    </processing>

    <junctions>
        <no-internal-links value="false"/>
        <no-turnarounds value="true"/>
        <junctions.corner-detail value="5"/>
        <junctions.limit-turn-speed value="5.5"/>
        <rectangular-lane-cut value="false"/>
    </junctions>

    <pedestrian>
        <walkingareas value="true"/>
    </pedestrian>

</configuration>
-->

<tlLogics version="1.3" xmlns:xsi="http://www.w3.org/2001/XMLSchema-instance" xsi:noNamespaceSchemaLocation="http://sumo.dlr.de/xsd/tllogic_file.xsd">
    <tlLogic id="0" type="static" programID="0" offset="0">
        <phase duration="28" state="rrrgGgrrrgGgGrGr"/>
        <phase duration="5"  state="rrrgGgrrrgGgrrrr"/>
        <phase duration="3"  state="rrryygrrryygrrrr"/>
        <phase duration="6"  state="rrrrrGrrrrrGrrrr"/>
        <phase duration="3"  state="rrrrryrrrrryrrrr"/>
        <phase duration="28" state="gGgrrrgGgrrrrGrG"/>
        <phase duration="5"  state="gGgrrrgGgrrrrrrr"/>
        <phase duration="3"  state="yygrrryygrrrrrrr"/>
        <phase duration="6"  state="rrGrrrrrGrrrrrrr"/>
        <phase duration="3"  state="rryrrrrryrrrrrrr"/>
    </tlLogic>

    <connection from="EC" to="CN" fromLane="1" toLane="1" tl="0" linkIndex="3"/>
    <connection from="EC" to="CW" fromLane="2" toLane="2" tl="0" linkIndex="4"/>
    <connection from="EC" to="CS" fromLane="3" toLane="3" tl="0" linkIndex="5"/>
    <connection from="NC" to="CW" fromLane="1" toLane="1" tl="0" linkIndex="0"/>
    <connection from="NC" to="CS" fromLane="2" toLane="2" tl="0" linkIndex="1"/>
    <connection from="NC" to="CE" fromLane="3" toLane="3" tl="0" linkIndex="2"/>
    <connection from="SC" to="CE" fromLane="1" toLane="1" tl="0" linkIndex="6"/>
    <connection from="SC" to="CN" fromLane="2" toLane="2" tl="0" linkIndex="7"/>
    <connection from="SC" to="CW" fromLane="3" toLane="3" tl="0" linkIndex="8"/>
    <connection from="WC" to="CS" fromLane="1" toLane="1" tl="0" linkIndex="9"/>
    <connection from="WC" to="CE" fromLane="2" toLane="2" tl="0" linkIndex="10"/>
    <connection from="WC" to="CN" fromLane="3" toLane="3" tl="0" linkIndex="11"/>
</tlLogics>
