<routes>
    <trip id="right_0" from="WC" to="CE" depart="0" departPos="random" arrivalPos="random" />
    <trip id="left_1" from="EC" to="CW" depart="0" departPos="random" arrivalPos="random" />
    <trip id="right_2" from="WC" to="CE" depart="1" departPos="random" arrivalPos="random" />
    <trip id="left_3" from="EC" to="CW" depart="1" departPos="random" arrivalPos="random" />
    <trip id="right_4" from="WC" to="CE" depart="2" departPos="random" arrivalPos="random" />
    <trip id="left_5" from="EC" to="CW" depart="2" departPos="random" arrivalPos="random" />
    <trip id="right_6" from="WC" to="CE" depart="3" departPos="random" arrivalPos="random" />
    <trip id="left_7" from="EC" to="CW" depart="3" departPos="random" arrivalPos="random" />
    <trip id="right_8" from="WC" to="CE" depart="4" departPos="random" arrivalPos="random" />
    <trip id="left_9" from="EC" to="CW" depart="4" departPos="random" arrivalPos="random" />
    <trip id="right_10" from="WC" to="CE" depart="5" departPos="random" arrivalPos="random" />
    <trip id="left_11" from="EC" to="CW" depart="5" departPos="random" arrivalPos="random" />
    <trip id="right_12" from="WC" to="CE" depart="6" departPos="random" arrivalPos="random" />
    <trip id="left_13" from="EC" to="CW" depart="6" departPos="random" arrivalPos="random" />
    <trip id="right_14" from="WC" to="CE" depart="7" departPos="random" arrivalPos="random" />
    <trip id="left_15" from="EC" to="CW" depart="7" departPos="random" arrivalPos="random" />
    <trip id="right_16" from="WC" to="CE" depart="8" departPos="random" arrivalPos="random" />
    <trip id="left_17" from="EC" to="CW" depart="8" departPos="random" arrivalPos="random" />
    <trip id="right_18" from="WC" to="CE" depart="9" departPos="random" arrivalPos="random" />
    <trip id="left_19" from="EC" to="CW" depart="9" departPos="random" arrivalPos="random" />
    <trip id="right_20" from="WC" to="CE" depart="10" departPos="random" arrivalPos="random" />
    <trip id="left_21" from="EC" to="CW" depart="10" departPos="random" arrivalPos="random" />
    <trip id="right_22" from="WC" to="CE" depart="11" departPos="random" arrivalPos="random" />
    <trip id="left_23" from="EC" to="CW" depart="11" departPos="random" arrivalPos="random" />
    <trip id="right_24" from="WC" to="CE" depart="12" departPos="random" arrivalPos="random" />
    <trip id="left_25" from="EC" to="CW" depart="12" departPos="random" arrivalPos="random" />
    <trip id="right_26" from="WC" to="CE" depart="13" departPos="random" arrivalPos="random" />
    <trip id="left_27" from="EC" to="CW" depart="13" departPos="random" arrivalPos="random" />
    <trip id="right_28" from="WC" to="CE" depart="14" departPos="random" arrivalPos="random" />
    <trip id="left_29" from="EC" to="CW" depart="14" departPos="random" arrivalPos="random" />
    <trip id="right_30" from="WC" to="CE" depart="15" departPos="random" arrivalPos="random" />
    <trip id="left_31" from="EC" to="CW" depart="15" departPos="random" arrivalPos="random" />
    <trip id="right_32" from="WC" to="CE" depart="16" departPos="random" arrivalPos="random" />
    <trip id="left_33" from="EC" to="CW" depart="16" departPos="random" arrivalPos="random" />
    <trip id="right_34" from="WC" to="CE" depart="17" departPos="random" arrivalPos="random" />
    <trip id="left_35" from="EC" to="CW" depart="17" departPos="random" arrivalPos="random" />
    <trip id="right_36" from="WC" to="CE" depart="18" departPos="random" arrivalPos="random" />
    <trip id="left_37" from="EC" to="CW" depart="18" departPos="random" arrivalPos="random" />
    <trip id="right_38" from="WC" to="CE" depart="19" departPos="random" arrivalPos="random" />
    <trip id="left_39" from="EC" to="CW" depart="19" departPos="random" arrivalPos="random" />
    <trip id="right_40" from="WC" to="CE" depart="20" departPos="random" arrivalPos="random" />
    <trip id="left_41" from="EC" to="CW" depart="20" departPos="random" arrivalPos="random" />
    <trip id="right_42" from="WC" to="CE" depart="21" departPos="random" arrivalPos="random" />
    <trip id="left_43" from="EC" to="CW" depart="21" departPos="random" arrivalPos="random" />
    <trip id="right_44" from="WC" to="CE" depart="22" departPos="random" arrivalPos="random" />
    <trip id="left_45" from="EC" to="CW" depart="22" departPos="random" arrivalPos="random" />
    <trip id="right_46" from="WC" to="CE" depart="23" departPos="random" arrivalPos="random" />
    <trip id="left_47" from="EC" to="CW" depart="23" departPos="random" arrivalPos="random" />
    <trip id="right_48" from="WC" to="CE" depart="24" departPos="random" arrivalPos="random" />
    <trip id="left_49" from="EC" to="CW" depart="24" departPos="random" arrivalPos="random" />
    <trip id="right_50" from="WC" to="CE" depart="25" departPos="random" arrivalPos="random" />
    <trip id="left_51" from="EC" to="CW" depart="25" departPos="random" arrivalPos="random" />
    <trip id="right_52" from="WC" to="CE" depart="26" departPos="random" arrivalPos="random" />
    <trip id="left_53" from="EC" to="CW" depart="26" departPos="random" arrivalPos="random" />
    <trip id="right_54" from="WC" to="CE" depart="27" departPos="random" arrivalPos="random" />
    <trip id="left_55" from="EC" to="CW" depart="27" departPos="random" arrivalPos="random" />
    <trip id="right_56" from="WC" to="CE" depart="28" departPos="random" arrivalPos="random" />
    <trip id="left_57" from="EC" to="CW" depart="28" departPos="random" arrivalPos="random" />
    <trip id="right_58" from="WC" to="CE" depart="29" departPos="random" arrivalPos="random" />
    <trip id="left_59" from="EC" to="CW" depart="29" departPos="random" arrivalPos="random" />
    <trip id="right_60" from="WC" to="CE" depart="30" departPos="random" arrivalPos="random" />
    <trip id="left_61" from="EC" to="CW" depart="30" departPos="random" arrivalPos="random" />
    <trip id="right_62" from="WC" to="CE" depart="31" departPos="random" arrivalPos="random" />
    <trip id="left_63" from="EC" to="CW" depart="31" departPos="random" arrivalPos="random" />
    <trip id="right_64" from="WC" to="CE" depart="32" departPos="random" arrivalPos="random" />
    <trip id="left_65" from="EC" to="CW" depart="32" departPos="random" arrivalPos="random" />
    <trip id="right_66" from="WC" to="CE" depart="33" departPos="random" arrivalPos="random" />
    <trip id="left_67" from="EC" to="CW" depart="33" departPos="random" arrivalPos="random" />
    <trip id="right_68" from="WC" to="CE" depart="34" departPos="random" arrivalPos="random" />
    <trip id="left_69" from="EC" to="CW" depart="34" departPos="random" arrivalPos="random" />
    <trip id="right_70" from="WC" to="CE" depart="35" departPos="random" arrivalPos="random" />
    <trip id="left_71" from="EC" to="CW" depart="35" departPos="random" arrivalPos="random" />
    <trip id="right_72" from="WC" to="CE" depart="36" departPos="random" arrivalPos="random" />
    <trip id="left_73" from="EC" to="CW" depart="36" departPos="random" arrivalPos="random" />
    <trip id="right_74" from="WC" to="CE" depart="37" departPos="random" arrivalPos="random" />
    <trip id="left_75" from="EC" to="CW" depart="37" departPos="random" arrivalPos="random" />
    <trip id="right_76" from="WC" to="CE" depart="38" departPos="random" arrivalPos="random" />
    <trip id="left_77" from="EC" to="CW" depart="38" departPos="random" arrivalPos="random" />
    <trip id="right_78" from="WC" to="CE" depart="39" departPos="random" arrivalPos="random" />
    <trip id="left_79" from="EC" to="CW" depart="39" departPos="random" arrivalPos="random" />
    <trip id="up_80" from="SC" to="CN" depart="39" color="1,0,0" departPos="random" arrivalPos="random"/>
    <trip id="right_81" from="WC" to="CE" depart="40" departPos="random" arrivalPos="random" />
    <trip id="left_82" from="EC" to="CW" depart="40" departPos="random" arrivalPos="random" />
    <trip id="right_83" from="WC" to="CE" depart="41" departPos="random" arrivalPos="random" />
    <trip id="left_84" from="EC" to="CW" depart="41" departPos="random" arrivalPos="random" />
    <trip id="right_85" from="WC" to="CE" depart="42" departPos="random" arrivalPos="random" />
    <trip id="left_86" from="EC" to="CW" depart="42" departPos="random" arrivalPos="random" />
    <trip id="right_87" from="WC" to="CE" depart="43" departPos="random" arrivalPos="random" />
    <trip id="left_88" from="EC" to="CW" depart="43" departPos="random" arrivalPos="random" />
    <trip id="right_89" from="WC" to="CE" depart="44" departPos="random" arrivalPos="random" />
    <trip id="left_90" from="EC" to="CW" depart="44" departPos="random" arrivalPos="random" />
    <trip id="right_91" from="WC" to="CE" depart="45" departPos="random" arrivalPos="random" />
    <trip id="left_92" from="EC" to="CW" depart="45" departPos="random" arrivalPos="random" />
    <trip id="right_93" from="WC" to="CE" depart="46" departPos="random" arrivalPos="random" />
    <trip id="left_94" from="EC" to="CW" depart="46" departPos="random" arrivalPos="random" />
    <trip id="right_95" from="WC" to="CE" depart="47" departPos="random" arrivalPos="random" />
    <trip id="left_96" from="EC" to="CW" depart="47" departPos="random" arrivalPos="random" />
    <trip id="right_97" from="WC" to="CE" depart="48" departPos="random" arrivalPos="random" />
    <trip id="left_98" from="EC" to="CW" depart="48" departPos="random" arrivalPos="random" />
    <trip id="right_99" from="WC" to="CE" depart="49" departPos="random" arrivalPos="random" />
    <trip id="left_100" from="EC" to="CW" depart="49" departPos="random" arrivalPos="random" />
    <trip id="right_101" from="WC" to="CE" depart="50" departPos="random" arrivalPos="random" />
    <trip id="left_102" from="EC" to="CW" depart="50" departPos="random" arrivalPos="random" />
    <trip id="right_103" from="WC" to="CE" depart="51" departPos="random" arrivalPos="random" />
    <trip id="left_104" from="EC" to="CW" depart="51" departPos="random" arrivalPos="random" />
    <trip id="right_105" from="WC" to="CE" depart="52" departPos="random" arrivalPos="random" />
    <trip id="left_106" from="EC" to="CW" depart="52" departPos="random" arrivalPos="random" />
    <trip id="right_107" from="WC" to="CE" depart="53" departPos="random" arrivalPos="random" />
    <trip id="left_108" from="EC" to="CW" depart="53" departPos="random" arrivalPos="random" />
    <trip id="right_109" from="WC" to="CE" depart="54" departPos="random" arrivalPos="random" />
    <trip id="left_110" from="EC" to="CW" depart="54" departPos="random" arrivalPos="random" />
    <trip id="right_111" from="WC" to="CE" depart="55" departPos="random" arrivalPos="random" />
    <trip id="left_112" from="EC" to="CW" depart="55" departPos="random" arrivalPos="random" />
    <trip id="right_113" from="WC" to="CE" depart="56" departPos="random" arrivalPos="random" />
    <trip id="left_114" from="EC" to="CW" depart="56" departPos="random" arrivalPos="random" />
    <trip id="right_115" from="WC" to="CE" depart="57" departPos="random" arrivalPos="random" />
    <trip id="left_116" from="EC" to="CW" depart="57" departPos="random" arrivalPos="random" />
    <trip id="right_117" from="WC" to="CE" depart="58" departPos="random" arrivalPos="random" />
    <trip id="left_118" from="EC" to="CW" depart="58" departPos="random" arrivalPos="random" />
    <trip id="right_119" from="WC" to="CE" depart="59" departPos="random" arrivalPos="random" />
    <trip id="left_120" from="EC" to="CW" depart="59" departPos="random" arrivalPos="random" />
    <trip id="right_121" from="WC" to="CE" depart="60" departPos="random" arrivalPos="random" />
    <trip id="left_122" from="EC" to="CW" depart="60" departPos="random" arrivalPos="random" />
    <trip id="right_123" from="WC" to="CE" depart="61" departPos="random" arrivalPos="random" />
    <trip id="left_124" from="EC" to="CW" depart="61" departPos="random" arrivalPos="random" />
    <trip id="right_125" from="WC" to="CE" depart="62" departPos="random" arrivalPos="random" />
    <trip id="left_126" from="EC" to="CW" depart="62" departPos="random" arrivalPos="random" />
    <trip id="right_127" from="WC" to="CE" depart="63" departPos="random" arrivalPos="random" />
    <trip id="left_128" from="EC" to="CW" depart="63" departPos="random" arrivalPos="random" />
    <trip id="right_129" from="WC" to="CE" depart="64" departPos="random" arrivalPos="random" />
    <trip id="left_130" from="EC" to="CW" depart="64" departPos="random" arrivalPos="random" />
    <trip id="right_131" from="WC" to="CE" depart="65" departPos="random" arrivalPos="random" />
    <trip id="left_132" from="EC" to="CW" depart="65" departPos="random" arrivalPos="random" />
    <trip id="right_133" from="WC" to="CE" depart="66" departPos="random" arrivalPos="random" />
    <trip id="left_134" from="EC" to="CW" depart="66" departPos="random" arrivalPos="random" />
    <trip id="right_135" from="WC" to="CE" depart="67" departPos="random" arrivalPos="random" />
    <trip id="left_136" from="EC" to="CW" depart="67" departPos="random" arrivalPos="random" />
    <trip id="right_137" from="WC" to="CE" depart="68" departPos="random" arrivalPos="random" />
    <trip id="left_138" from="EC" to="CW" depart="68" departPos="random" arrivalPos="random" />
    <trip id="right_139" from="WC" to="CE" depart="69" departPos="random" arrivalPos="random" />
    <trip id="left_140" from="EC" to="CW" depart="69" departPos="random" arrivalPos="random" />
    <trip id="right_141" from="WC" to="CE" depart="70" departPos="random" arrivalPos="random" />
    <trip id="left_142" from="EC" to="CW" depart="70" departPos="random" arrivalPos="random" />
    <trip id="right_143" from="WC" to="CE" depart="71" departPos="random" arrivalPos="random" />
    <trip id="left_144" from="EC" to="CW" depart="71" departPos="random" arrivalPos="random" />
    <trip id="right_145" from="WC" to="CE" depart="72" departPos="random" arrivalPos="random" />
    <trip id="left_146" from="EC" to="CW" depart="72" departPos="random" arrivalPos="random" />
    <trip id="right_147" from="WC" to="CE" depart="73" departPos="random" arrivalPos="random" />
    <trip id="left_148" from="EC" to="CW" depart="73" departPos="random" arrivalPos="random" />
    <trip id="right_149" from="WC" to="CE" depart="74" departPos="random" arrivalPos="random" />
    <trip id="left_150" from="EC" to="CW" depart="74" departPos="random" arrivalPos="random" />
    <trip id="right_151" from="WC" to="CE" depart="75" departPos="random" arrivalPos="random" />
    <trip id="left_152" from="EC" to="CW" depart="75" departPos="random" arrivalPos="random" />
    <trip id="right_153" from="WC" to="CE" depart="76" departPos="random" arrivalPos="random" />
    <trip id="left_154" from="EC" to="CW" depart="76" departPos="random" arrivalPos="random" />
    <trip id="right_155" from="WC" to="CE" depart="77" departPos="random" arrivalPos="random" />
    <trip id="left_156" from="EC" to="CW" depart="77" departPos="random" arrivalPos="random" />
    <trip id="right_157" from="WC" to="CE" depart="78" departPos="random" arrivalPos="random" />
    <trip id="left_158" from="EC" to="CW" depart="78" departPos="random" arrivalPos="random" />
    <trip id="right_159" from="WC" to="CE" depart="79" departPos="random" arrivalPos="random" />
    <trip id="left_160" from="EC" to="CW" depart="79" departPos="random" arrivalPos="random" />
    <trip id="right_161" from="WC" to="CE" depart="80" departPos="random" arrivalPos="random" />
    <trip id="left_162" from="EC" to="CW" depart="80" departPos="random" arrivalPos="random" />
    <trip id="right_163" from="WC" to="CE" depart="81" departPos="random" arrivalPos="random" />
    <trip id="left_164" from="EC" to="CW" depart="81" departPos="random" arrivalPos="random" />
    <trip id="right_165" from="WC" to="CE" depart="82" departPos="random" arrivalPos="random" />
    <trip id="left_166" from="EC" to="CW" depart="82" departPos="random" arrivalPos="random" />
    <trip id="right_167" from="WC" to="CE" depart="83" departPos="random" arrivalPos="random" />
    <trip id="left_168" from="EC" to="CW" depart="83" departPos="random" arrivalPos="random" />
    <trip id="right_169" from="WC" to="CE" depart="84" departPos="random" arrivalPos="random" />
    <trip id="left_170" from="EC" to="CW" depart="84" departPos="random" arrivalPos="random" />
    <trip id="right_171" from="WC" to="CE" depart="85" departPos="random" arrivalPos="random" />
    <trip id="left_172" from="EC" to="CW" depart="85" departPos="random" arrivalPos="random" />
    <trip id="right_173" from="WC" to="CE" depart="86" departPos="random" arrivalPos="random" />
    <trip id="left_174" from="EC" to="CW" depart="86" departPos="random" arrivalPos="random" />
    <trip id="right_175" from="WC" to="CE" depart="87" departPos="random" arrivalPos="random" />
    <trip id="left_176" from="EC" to="CW" depart="87" departPos="random" arrivalPos="random" />
    <trip id="right_177" from="WC" to="CE" depart="88" departPos="random" arrivalPos="random" />
    <trip id="left_178" from="EC" to="CW" depart="88" departPos="random" arrivalPos="random" />
    <trip id="right_179" from="WC" to="CE" depart="89" departPos="random" arrivalPos="random" />
    <trip id="left_180" from="EC" to="CW" depart="89" departPos="random" arrivalPos="random" />
    <trip id="right_181" from="WC" to="CE" depart="90" departPos="random" arrivalPos="random" />
    <trip id="left_182" from="EC" to="CW" depart="90" departPos="random" arrivalPos="random" />
    <trip id="right_183" from="WC" to="CE" depart="91" departPos="random" arrivalPos="random" />
    <trip id="left_184" from="EC" to="CW" depart="91" departPos="random" arrivalPos="random" />
    <trip id="right_185" from="WC" to="CE" depart="92" departPos="random" arrivalPos="random" />
    <trip id="left_186" from="EC" to="CW" depart="92" departPos="random" arrivalPos="random" />
    <trip id="right_187" from="WC" to="CE" depart="93" departPos="random" arrivalPos="random" />
    <trip id="left_188" from="EC" to="CW" depart="93" departPos="random" arrivalPos="random" />
    <trip id="right_189" from="WC" to="CE" depart="94" departPos="random" arrivalPos="random" />
    <trip id="left_190" from="EC" to="CW" depart="94" departPos="random" arrivalPos="random" />
    <trip id="right_191" from="WC" to="CE" depart="95" departPos="random" arrivalPos="random" />
    <trip id="left_192" from="EC" to="CW" depart="95" departPos="random" arrivalPos="random" />
    <trip id="right_193" from="WC" to="CE" depart="96" departPos="random" arrivalPos="random" />
    <trip id="left_194" from="EC" to="CW" depart="96" departPos="random" arrivalPos="random" />
    <trip id="right_195" from="WC" to="CE" depart="97" departPos="random" arrivalPos="random" />
    <trip id="left_196" from="EC" to="CW" depart="97" departPos="random" arrivalPos="random" />
    <trip id="right_197" from="WC" to="CE" depart="98" departPos="random" arrivalPos="random" />
    <trip id="left_198" from="EC" to="CW" depart="98" departPos="random" arrivalPos="random" />
    <trip id="right_199" from="WC" to="CE" depart="99" departPos="random" arrivalPos="random" />
    <trip id="left_200" from="EC" to="CW" depart="99" departPos="random" arrivalPos="random" />
    <trip id="right_201" from="WC" to="CE" depart="100" departPos="random" arrivalPos="random" />
    <trip id="left_202" from="EC" to="CW" depart="100" departPos="random" arrivalPos="random" />
    <trip id="right_203" from="WC" to="CE" depart="101" departPos="random" arrivalPos="random" />
    <trip id="left_204" from="EC" to="CW" depart="101" departPos="random" arrivalPos="random" />
    <trip id="right_205" from="WC" to="CE" depart="102" departPos="random" arrivalPos="random" />
    <trip id="left_206" from="EC" to="CW" depart="102" departPos="random" arrivalPos="random" />
    <trip id="right_207" from="WC" to="CE" depart="103" departPos="random" arrivalPos="random" />
    <trip id="left_208" from="EC" to="CW" depart="103" departPos="random" arrivalPos="random" />
    <trip id="right_209" from="WC" to="CE" depart="104" departPos="random" arrivalPos="random" />
    <trip id="left_210" from="EC" to="CW" depart="104" departPos="random" arrivalPos="random" />
    <trip id="right_211" from="WC" to="CE" depart="105" departPos="random" arrivalPos="random" />
    <trip id="left_212" from="EC" to="CW" depart="105" departPos="random" arrivalPos="random" />
    <trip id="right_213" from="WC" to="CE" depart="106" departPos="random" arrivalPos="random" />
    <trip id="left_214" from="EC" to="CW" depart="106" departPos="random" arrivalPos="random" />
    <trip id="right_215" from="WC" to="CE" depart="107" departPos="random" arrivalPos="random" />
    <trip id="left_216" from="EC" to="CW" depart="107" departPos="random" arrivalPos="random" />
    <trip id="right_217" from="WC" to="CE" depart="108" departPos="random" arrivalPos="random" />
    <trip id="left_218" from="EC" to="CW" depart="108" departPos="random" arrivalPos="random" />
    <trip id="right_219" from="WC" to="CE" depart="109" departPos="random" arrivalPos="random" />
    <trip id="left_220" from="EC" to="CW" depart="109" departPos="random" arrivalPos="random" />
    <trip id="right_221" from="WC" to="CE" depart="110" departPos="random" arrivalPos="random" />
    <trip id="left_222" from="EC" to="CW" depart="110" departPos="random" arrivalPos="random" />
    <trip id="right_223" from="WC" to="CE" depart="111" departPos="random" arrivalPos="random" />
    <trip id="left_224" from="EC" to="CW" depart="111" departPos="random" arrivalPos="random" />
    <trip id="right_225" from="WC" to="CE" depart="112" departPos="random" arrivalPos="random" />
    <trip id="left_226" from="EC" to="CW" depart="112" departPos="random" arrivalPos="random" />
    <trip id="right_227" from="WC" to="CE" depart="113" departPos="random" arrivalPos="random" />
    <trip id="left_228" from="EC" to="CW" depart="113" departPos="random" arrivalPos="random" />
    <trip id="right_229" from="WC" to="CE" depart="114" departPos="random" arrivalPos="random" />
    <trip id="left_230" from="EC" to="CW" depart="114" departPos="random" arrivalPos="random" />
    <trip id="right_231" from="WC" to="CE" depart="115" departPos="random" arrivalPos="random" />
    <trip id="left_232" from="EC" to="CW" depart="115" departPos="random" arrivalPos="random" />
    <trip id="right_233" from="WC" to="CE" depart="116" departPos="random" arrivalPos="random" />
    <trip id="left_234" from="EC" to="CW" depart="116" departPos="random" arrivalPos="random" />
    <trip id="right_235" from="WC" to="CE" depart="117" departPos="random" arrivalPos="random" />
    <trip id="left_236" from="EC" to="CW" depart="117" departPos="random" arrivalPos="random" />
    <trip id="right_237" from="WC" to="CE" depart="118" departPos="random" arrivalPos="random" />
    <trip id="left_238" from="EC" to="CW" depart="118" departPos="random" arrivalPos="random" />
    <trip id="right_239" from="WC" to="CE" depart="119" departPos="random" arrivalPos="random" />
    <trip id="left_240" from="EC" to="CW" depart="119" departPos="random" arrivalPos="random" />
    <trip id="right_241" from="WC" to="CE" depart="120" departPos="random" arrivalPos="random" />
    <trip id="left_242" from="EC" to="CW" depart="120" departPos="random" arrivalPos="random" />
    <trip id="right_243" from="WC" to="CE" depart="121" departPos="random" arrivalPos="random" />
    <trip id="left_244" from="EC" to="CW" depart="121" departPos="random" arrivalPos="random" />
    <trip id="right_245" from="WC" to="CE" depart="122" departPos="random" arrivalPos="random" />
    <trip id="left_246" from="EC" to="CW" depart="122" departPos="random" arrivalPos="random" />
    <trip id="right_247" from="WC" to="CE" depart="123" departPos="random" arrivalPos="random" />
    <trip id="left_248" from="EC" to="CW" depart="123" departPos="random" arrivalPos="random" />
    <trip id="right_249" from="WC" to="CE" depart="124" departPos="random" arrivalPos="random" />
    <trip id="left_250" from="EC" to="CW" depart="124" departPos="random" arrivalPos="random" />
    <trip id="right_251" from="WC" to="CE" depart="125" departPos="random" arrivalPos="random" />
    <trip id="left_252" from="EC" to="CW" depart="125" departPos="random" arrivalPos="random" />
    <trip id="right_253" from="WC" to="CE" depart="126" departPos="random" arrivalPos="random" />
    <trip id="left_254" from="EC" to="CW" depart="126" departPos="random" arrivalPos="random" />
    <trip id="right_255" from="WC" to="CE" depart="127" departPos="random" arrivalPos="random" />
    <trip id="left_256" from="EC" to="CW" depart="127" departPos="random" arrivalPos="random" />
    <trip id="right_257" from="WC" to="CE" depart="128" departPos="random" arrivalPos="random" />
    <trip id="left_258" from="EC" to="CW" depart="128" departPos="random" arrivalPos="random" />
    <trip id="right_259" from="WC" to="CE" depart="129" departPos="random" arrivalPos="random" />
    <trip id="left_260" from="EC" to="CW" depart="129" departPos="random" arrivalPos="random" />
    <trip id="right_261" from="WC" to="CE" depart="130" departPos="random" arrivalPos="random" />
    <trip id="left_262" from="EC" to="CW" depart="130" departPos="random" arrivalPos="random" />
    <trip id="right_263" from="WC" to="CE" depart="131" departPos="random" arrivalPos="random" />
    <trip id="left_264" from="EC" to="CW" depart="131" departPos="random" arrivalPos="random" />
    <trip id="right_265" from="WC" to="CE" depart="132" departPos="random" arrivalPos="random" />
    <trip id="left_266" from="EC" to="CW" depart="132" departPos="random" arrivalPos="random" />
    <trip id="right_267" from="WC" to="CE" depart="133" departPos="random" arrivalPos="random" />
    <trip id="left_268" from="EC" to="CW" depart="133" departPos="random" arrivalPos="random" />
    <trip id="right_269" from="WC" to="CE" depart="134" departPos="random" arrivalPos="random" />
    <trip id="left_270" from="EC" to="CW" depart="134" departPos="random" arrivalPos="random" />
    <trip id="right_271" from="WC" to="CE" depart="135" departPos="random" arrivalPos="random" />
    <trip id="left_272" from="EC" to="CW" depart="135" departPos="random" arrivalPos="random" />
    <trip id="right_273" from="WC" to="CE" depart="136" departPos="random" arrivalPos="random" />
    <trip id="left_274" from="EC" to="CW" depart="136" departPos="random" arrivalPos="random" />
    <trip id="right_275" from="WC" to="CE" depart="137" departPos="random" arrivalPos="random" />
    <trip id="left_276" from="EC" to="CW" depart="137" departPos="random" arrivalPos="random" />
    <trip id="right_277" from="WC" to="CE" depart="138" departPos="random" arrivalPos="random" />
    <trip id="left_278" from="EC" to="CW" depart="138" departPos="random" arrivalPos="random" />
    <trip id="right_279" from="WC" to="CE" depart="139" departPos="random" arrivalPos="random" />
    <trip id="left_280" from="EC" to="CW" depart="139" departPos="random" arrivalPos="random" />
    <trip id="right_281" from="WC" to="CE" depart="140" departPos="random" arrivalPos="random" />
    <trip id="left_282" from="EC" to="CW" depart="140" departPos="random" arrivalPos="random" />
    <trip id="right_283" from="WC" to="CE" depart="141" departPos="random" arrivalPos="random" />
    <trip id="left_284" from="EC" to="CW" depart="141" departPos="random" arrivalPos="random" />
    <trip id="right_285" from="WC" to="CE" depart="142" departPos="random" arrivalPos="random" />
    <trip id="left_286" from="EC" to="CW" depart="142" departPos="random" arrivalPos="random" />
    <trip id="right_287" from="WC" to="CE" depart="143" departPos="random" arrivalPos="random" />
    <trip id="left_288" from="EC" to="CW" depart="143" departPos="random" arrivalPos="random" />
    <trip id="right_289" from="WC" to="CE" depart="144" departPos="random" arrivalPos="random" />
    <trip id="left_290" from="EC" to="CW" depart="144" departPos="random" arrivalPos="random" />
    <trip id="right_291" from="WC" to="CE" depart="145" departPos="random" arrivalPos="random" />
    <trip id="left_292" from="EC" to="CW" depart="145" departPos="random" arrivalPos="random" />
    <trip id="right_293" from="WC" to="CE" depart="146" departPos="random" arrivalPos="random" />
    <trip id="left_294" from="EC" to="CW" depart="146" departPos="random" arrivalPos="random" />
    <trip id="right_295" from="WC" to="CE" depart="147" departPos="random" arrivalPos="random" />
    <trip id="left_296" from="EC" to="CW" depart="147" departPos="random" arrivalPos="random" />
    <trip id="right_297" from="WC" to="CE" depart="148" departPos="random" arrivalPos="random" />
    <trip id="left_298" from="EC" to="CW" depart="148" departPos="random" arrivalPos="random" />
    <trip id="right_299" from="WC" to="CE" depart="149" departPos="random" arrivalPos="random" />
    <trip id="left_300" from="EC" to="CW" depart="149" departPos="random" arrivalPos="random" />
    <trip id="right_301" from="WC" to="CE" depart="150" departPos="random" arrivalPos="random" />
    <trip id="left_302" from="EC" to="CW" depart="150" departPos="random" arrivalPos="random" />
    <trip id="right_303" from="WC" to="CE" depart="151" departPos="random" arrivalPos="random" />
    <trip id="left_304" from="EC" to="CW" depart="151" departPos="random" arrivalPos="random" />
    <trip id="right_305" from="WC" to="CE" depart="152" departPos="random" arrivalPos="random" />
    <trip id="left_306" from="EC" to="CW" depart="152" departPos="random" arrivalPos="random" />
    <trip id="right_307" from="WC" to="CE" depart="153" departPos="random" arrivalPos="random" />
    <trip id="left_308" from="EC" to="CW" depart="153" departPos="random" arrivalPos="random" />
    <trip id="right_309" from="WC" to="CE" depart="154" departPos="random" arrivalPos="random" />