<?xml version="1.0" encoding="UTF-8"?>

<!-- generated on Fri 15 Nov 2019 10:51:35 AM EST by Eclipse SUMO netedit Version 1.3.1
<configuration xmlns:xsi="http://www.w3.org/2001/XMLSchema-instance" xsi:noNamespaceSchemaLocation="http://sumo.dlr.de/xsd/netconvertConfiguration.xsd">

    <input>
        <sumo-net-file value="plymouth.net.xml"/>
    </input>

    <output>
        <output-file value="plymouth.net.xml"/>
    </output>

    <processing>
        <geometry.max-grade.fix value="false"/>
        <offset.disable-normalization value="true"/>
        <opposites.guess.fix-lengths value="true"/>
        <lefthand value="false"/>
    </processing>

    <junctions>
        <no-turnarounds value="true"/>
        <junctions.corner-detail value="5"/>
        <junctions.limit-turn-speed value="5.5"/>
        <rectangular-lane-cut value="false"/>
    </junctions>

    <pedestrian>
        <walkingareas value="false"/>
    </pedestrian>

</configuration>
-->

<net version="1.3" junctionCornerDetail="5" limitTurnSpeed="5.50" xmlns:xsi="http://www.w3.org/2001/XMLSchema-instance" xsi:noNamespaceSchemaLocation="http://sumo.dlr.de/xsd/net_file.xsd">

    <location netOffset="-275451.62,-4686337.14" convBoundary="215.81,59.42,361.82,162.95" origBoundary="-83.724071,42.297006,-83.712282,42.302187" projParameter="+proj=utm +zone=17 +ellps=WGS84 +datum=WGS84 +units=m +no_defs"/>

    <type id="highway.bridleway" priority="1" numLanes="1" speed="2.78" allow="pedestrian" oneway="1" width="2.00"/>
    <type id="highway.bus_guideway" priority="1" numLanes="1" speed="27.78" allow="bus" oneway="1"/>
    <type id="highway.cycleway" priority="1" numLanes="1" speed="8.33" allow="bicycle" oneway="0" width="1.00"/>
    <type id="highway.footway" priority="1" numLanes="1" speed="2.78" allow="pedestrian" oneway="1" width="2.00"/>
    <type id="highway.ford" priority="1" numLanes="1" speed="2.78" allow="army" oneway="0"/>
    <type id="highway.living_street" priority="2" numLanes="1" speed="2.78" disallow="tram rail_urban rail rail_electric rail_fast ship" oneway="0"/>
    <type id="highway.motorway" priority="14" numLanes="2" speed="39.44" allow="private emergency authority army vip passenger hov taxi bus coach delivery truck trailer motorcycle evehicle custom1 custom2" oneway="1"/>
    <type id="highway.motorway_link" priority="9" numLanes="1" speed="22.22" allow="private emergency authority army vip passenger hov taxi bus coach delivery truck trailer motorcycle evehicle custom1 custom2" oneway="1"/>
    <type id="highway.path" priority="1" numLanes="1" speed="2.78" allow="pedestrian bicycle" oneway="1" width="2.00"/>
    <type id="highway.pedestrian" priority="1" numLanes="1" speed="2.78" allow="pedestrian" oneway="1" width="2.00"/>
    <type id="highway.primary" priority="12" numLanes="2" speed="27.78" disallow="tram rail_urban rail rail_electric rail_fast ship" oneway="0"/>
    <type id="highway.primary_link" priority="7" numLanes="1" speed="22.22" disallow="tram rail_urban rail rail_electric rail_fast ship" oneway="0"/>
    <type id="highway.raceway" priority="15" numLanes="2" speed="83.33" allow="vip" oneway="0"/>
    <type id="highway.residential" priority="3" numLanes="1" speed="13.89" disallow="tram rail_urban rail rail_electric rail_fast ship" oneway="0"/>
    <type id="highway.secondary" priority="11" numLanes="2" speed="27.78" disallow="tram rail_urban rail rail_electric rail_fast ship" oneway="0"/>
    <type id="highway.secondary_link" priority="6" numLanes="1" speed="22.22" disallow="tram rail_urban rail rail_electric rail_fast ship" oneway="0"/>
    <type id="highway.service" priority="1" numLanes="1" speed="5.56" allow="pedestrian delivery bicycle" oneway="0"/>
    <type id="highway.stairs" priority="1" numLanes="1" speed="1.39" allow="pedestrian" oneway="1" width="2.00"/>
    <type id="highway.step" priority="1" numLanes="1" speed="1.39" allow="pedestrian" oneway="1" width="2.00"/>
    <type id="highway.steps" priority="1" numLanes="1" speed="1.39" allow="pedestrian" oneway="1" width="2.00"/>
    <type id="highway.tertiary" priority="10" numLanes="1" speed="22.22" disallow="tram rail_urban rail rail_electric rail_fast ship" oneway="0"/>
    <type id="highway.tertiary_link" priority="5" numLanes="1" speed="22.22" disallow="tram rail_urban rail rail_electric rail_fast ship" oneway="0"/>
    <type id="highway.track" priority="1" numLanes="1" speed="5.56" disallow="tram rail_urban rail rail_electric rail_fast ship" oneway="0"/>
    <type id="highway.trunk" priority="13" numLanes="2" speed="27.78" disallow="pedestrian bicycle tram rail_urban rail rail_electric rail_fast ship" oneway="0"/>
    <type id="highway.trunk_link" priority="8" numLanes="1" speed="22.22" disallow="pedestrian bicycle tram rail_urban rail rail_electric rail_fast ship" oneway="0"/>
    <type id="highway.unclassified" priority="4" numLanes="1" speed="13.89" disallow="tram rail_urban rail rail_electric rail_fast ship" oneway="0"/>
    <type id="highway.unsurfaced" priority="1" numLanes="1" speed="8.33" disallow="tram rail_urban rail rail_electric rail_fast ship" oneway="0"/>
    <type id="railway.highspeed" priority="21" numLanes="1" speed="69.44" allow="rail_fast" oneway="1"/>
    <type id="railway.light_rail" priority="19" numLanes="1" speed="27.78" allow="rail_urban" oneway="1"/>
    <type id="railway.preserved" priority="16" numLanes="1" speed="27.78" allow="rail" oneway="1"/>
    <type id="railway.rail" priority="20" numLanes="1" speed="44.44" allow="rail" oneway="1"/>
    <type id="railway.subway" priority="18" numLanes="1" speed="27.78" allow="rail_urban" oneway="1"/>
    <type id="railway.tram" priority="17" numLanes="1" speed="13.89" allow="tram" oneway="1"/>

    <edge id=":4200368774_0" function="internal">
        <lane id=":4200368774_0_0" index="0" disallow="tram rail_urban rail rail_electric rail_fast ship" speed="3.65" length="4.67" shape="290.07,162.94 289.28,164.15 288.48,164.55 287.68,164.15 286.87,162.96"/>
    </edge>
    <edge id=":62501649_0" function="internal">
        <lane id=":62501649_0_0" index="0" disallow="tram rail_urban rail rail_electric rail_fast ship" speed="3.65" length="4.67" shape="216.14,113.38 214.80,112.84 214.24,112.14 214.47,111.27 215.48,110.24"/>
    </edge>
    <edge id=":62605528_0" function="internal">
        <lane id=":62605528_0_0" index="0" disallow="tram rail_urban rail rail_electric rail_fast ship" speed="3.65" length="4.67" shape="294.24,59.08 295.27,58.08 296.14,57.86 296.83,58.41 297.36,59.76"/>
    </edge>
    <edge id=":62616753_0" function="internal">
        <lane id=":62616753_0_0" index="0" disallow="tram rail_urban rail rail_electric rail_fast ship" speed="3.65" length="4.67" shape="362.23,113.48 363.19,114.56 363.37,115.44 362.77,116.11 361.41,116.58"/>
    </edge>
    <edge id=":cluster_5366535756_5366535757_5545639495_5545639496_767530322_0" function="internal">
        <lane id=":cluster_5366535756_5366535757_5545639495_5545639496_767530322_0_0" index="0" disallow="tram rail_urban rail rail_electric rail_fast ship" speed="9.89" length="21.98" shape="286.62,122.45 285.75,116.43 283.21,112.11 279.01,109.50 273.14,108.58"/>
    </edge>
    <edge id=":cluster_5366535756_5366535757_5545639495_5545639496_767530322_1" function="internal">
        <lane id=":cluster_5366535756_5366535757_5545639495_5545639496_767530322_1_0" index="0" disallow="tram rail_urban rail rail_electric rail_fast ship" speed="13.89" length="39.26" shape="286.62,122.45 286.97,114.92 287.82,102.86 288.82,90.81 289.60,83.31"/>
    </edge>
    <edge id=":cluster_5366535756_5366535757_5545639495_5545639496_767530322_2" function="internal">
        <lane id=":cluster_5366535756_5366535757_5545639495_5545639496_767530322_2_0" index="0" disallow="tram rail_urban rail rail_electric rail_fast ship" speed="11.12" length="13.82" shape="286.62,122.45 287.67,113.67 290.00,109.28"/>
    </edge>
    <edge id=":cluster_5366535756_5366535757_5545639495_5545639496_767530322_3" function="internal">
        <lane id=":cluster_5366535756_5366535757_5545639495_5545639496_767530322_3_0" index="0" disallow="tram rail_urban rail rail_electric rail_fast ship" speed="3.65" length="2.52" shape="286.62,122.45 287.42,121.25 288.21,120.84 288.38,120.92"/>
    </edge>
    <edge id=":cluster_5366535756_5366535757_5545639495_5545639496_767530322_18" function="internal">
        <lane id=":cluster_5366535756_5366535757_5545639495_5545639496_767530322_18_0" index="0" disallow="tram rail_urban rail rail_electric rail_fast ship" speed="11.12" length="16.10" shape="290.00,109.28 290.92,107.56 296.38,104.12 304.04,103.35"/>
    </edge>
    <edge id=":cluster_5366535756_5366535757_5545639495_5545639496_767530322_19" function="internal">
        <lane id=":cluster_5366535756_5366535757_5545639495_5545639496_767530322_19_0" index="0" disallow="tram rail_urban rail rail_electric rail_fast ship" speed="3.65" length="2.15" shape="288.38,120.92 289.02,121.24 289.82,122.43"/>
    </edge>
    <edge id=":cluster_5366535756_5366535757_5545639495_5545639496_767530322_4" function="internal">
        <lane id=":cluster_5366535756_5366535757_5545639495_5545639496_767530322_4_0" index="0" disallow="tram rail_urban rail rail_electric rail_fast ship" speed="8.98" length="19.11" shape="303.43,112.93 297.45,113.20 293.19,114.87 290.65,117.95 289.82,122.43"/>
    </edge>
    <edge id=":cluster_5366535756_5366535757_5545639495_5545639496_767530322_5" function="internal">
        <lane id=":cluster_5366535756_5366535757_5545639495_5545639496_767530322_5_0" index="0" disallow="tram rail_urban rail rail_electric rail_fast ship" speed="15.65" length="30.69" shape="303.43,112.93 273.14,108.58"/>
        <lane id=":cluster_5366535756_5366535757_5545639495_5545639496_767530322_5_1" index="1" disallow="tram rail_urban rail rail_electric rail_fast ship" speed="15.65" length="30.69" shape="303.64,109.74 273.17,105.38"/>
    </edge>
    <edge id=":cluster_5366535756_5366535757_5545639495_5545639496_767530322_7" function="internal">
        <lane id=":cluster_5366535756_5366535757_5545639495_5545639496_767530322_7_0" index="0" disallow="tram rail_urban rail rail_electric rail_fast ship" speed="11.35" length="9.22" shape="303.84,106.54 296.36,104.67 295.25,103.65"/>
    </edge>
    <edge id=":cluster_5366535756_5366535757_5545639495_5545639496_767530322_8" function="internal">
        <lane id=":cluster_5366535756_5366535757_5545639495_5545639496_767530322_8_0" index="0" disallow="tram rail_urban rail rail_electric rail_fast ship" speed="3.65" length="2.45" shape="303.84,106.54 302.69,105.67 302.35,104.85 302.40,104.74"/>
    </edge>
    <edge id=":cluster_5366535756_5366535757_5545639495_5545639496_767530322_20" function="internal">
        <lane id=":cluster_5366535756_5366535757_5545639495_5545639496_767530322_20_0" index="0" disallow="tram rail_urban rail rail_electric rail_fast ship" speed="11.35" length="22.33" shape="295.25,103.65 291.49,100.17 289.24,93.05 289.60,83.31"/>
    </edge>
    <edge id=":cluster_5366535756_5366535757_5545639495_5545639496_767530322_21" function="internal">
        <lane id=":cluster_5366535756_5366535757_5545639495_5545639496_767530322_21_0" index="0" disallow="tram rail_urban rail rail_electric rail_fast ship" speed="3.65" length="2.22" shape="302.40,104.74 302.80,104.07 304.04,103.35"/>
    </edge>
    <edge id=":cluster_5366535756_5366535757_5545639495_5545639496_767530322_9" function="internal">
        <lane id=":cluster_5366535756_5366535757_5545639495_5545639496_767530322_9_0" index="0" disallow="tram rail_urban rail rail_electric rail_fast ship" speed="9.26" length="20.63" shape="295.93,84.27 295.59,90.97 296.86,95.85 299.75,98.91 304.25,100.16"/>
    </edge>
    <edge id=":cluster_5366535756_5366535757_5545639495_5545639496_767530322_10" function="internal">
        <lane id=":cluster_5366535756_5366535757_5545639495_5545639496_767530322_10_0" index="0" disallow="tram rail_urban rail rail_electric rail_fast ship" speed="13.89" length="38.66" shape="295.93,84.27 294.34,93.70 292.30,105.18 290.55,115.75 289.82,122.43"/>
    </edge>
    <edge id=":cluster_5366535756_5366535757_5545639495_5545639496_767530322_11" function="internal">
        <lane id=":cluster_5366535756_5366535757_5545639495_5545639496_767530322_11_0" index="0" disallow="tram rail_urban rail rail_electric rail_fast ship" speed="12.48" length="10.02" shape="292.77,83.79 290.31,93.30 290.20,93.47"/>
    </edge>
    <edge id=":cluster_5366535756_5366535757_5545639495_5545639496_767530322_12" function="internal">
        <lane id=":cluster_5366535756_5366535757_5545639495_5545639496_767530322_12_0" index="0" disallow="tram rail_urban rail rail_electric rail_fast ship" speed="3.65" length="2.34" shape="292.77,83.79 291.80,84.86 290.95,85.13"/>
    </edge>
    <edge id=":cluster_5366535756_5366535757_5545639495_5545639496_767530322_22" function="internal">
        <lane id=":cluster_5366535756_5366535757_5545639495_5545639496_767530322_22_0" index="0" disallow="tram rail_urban rail rail_electric rail_fast ship" speed="12.48" length="22.15" shape="290.20,93.47 286.22,100.06 280.51,104.09 273.17,105.38"/>
    </edge>
    <edge id=":cluster_5366535756_5366535757_5545639495_5545639496_767530322_23" function="internal">
        <lane id=":cluster_5366535756_5366535757_5545639495_5545639496_767530322_23_0" index="0" disallow="tram rail_urban rail rail_electric rail_fast ship" speed="3.65" length="2.34" shape="290.95,85.13 290.22,84.62 289.60,83.31"/>
    </edge>
    <edge id=":cluster_5366535756_5366535757_5545639495_5545639496_767530322_13" function="internal">
        <lane id=":cluster_5366535756_5366535757_5545639495_5545639496_767530322_13_0" index="0" disallow="tram rail_urban rail rail_electric rail_fast ship" speed="10.56" length="22.77" shape="273.26,95.78 279.69,95.05 284.56,92.73 287.87,88.82 289.60,83.31"/>
    </edge>
    <edge id=":cluster_5366535756_5366535757_5545639495_5545639496_767530322_14" function="internal">
        <lane id=":cluster_5366535756_5366535757_5545639495_5545639496_767530322_14_0" index="0" disallow="tram rail_urban rail rail_electric rail_fast ship" speed="15.65" length="31.26" shape="273.26,95.78 283.02,96.44 290.64,97.78 297.31,99.22 304.25,100.16"/>
        <lane id=":cluster_5366535756_5366535757_5545639495_5545639496_767530322_14_1" index="1" disallow="tram rail_urban rail rail_electric rail_fast ship" speed="15.65" length="31.26" shape="273.23,98.98 282.97,99.64 290.52,100.98 297.13,102.42 304.04,103.35"/>
    </edge>
    <edge id=":cluster_5366535756_5366535757_5545639495_5545639496_767530322_16" function="internal">
        <lane id=":cluster_5366535756_5366535757_5545639495_5545639496_767530322_16_0" index="0" disallow="tram rail_urban rail rail_electric rail_fast ship" speed="11.43" length="10.06" shape="273.20,102.18 280.43,103.51 282.61,105.12"/>
    </edge>
    <edge id=":cluster_5366535756_5366535757_5545639495_5545639496_767530322_17" function="internal">
        <lane id=":cluster_5366535756_5366535757_5545639495_5545639496_767530322_17_0" index="0" disallow="tram rail_urban rail rail_electric rail_fast ship" speed="3.65" length="2.55" shape="273.20,102.18 274.39,102.99 274.78,103.80 274.69,103.98"/>
    </edge>
    <edge id=":cluster_5366535756_5366535757_5545639495_5545639496_767530322_24" function="internal">
        <lane id=":cluster_5366535756_5366535757_5545639495_5545639496_767530322_24_0" index="0" disallow="tram rail_urban rail rail_electric rail_fast ship" speed="11.43" length="19.63" shape="282.61,105.12 285.60,107.32 288.74,113.63 289.82,122.43"/>
    </edge>
    <edge id=":cluster_5366535756_5366535757_5545639495_5545639496_767530322_25" function="internal">
        <lane id=":cluster_5366535756_5366535757_5545639495_5545639496_767530322_25_0" index="0" disallow="tram rail_urban rail rail_electric rail_fast ship" speed="3.65" length="2.13" shape="274.69,103.98 274.38,104.59 273.17,105.38"/>
    </edge>

    <edge id="-222786838#0" from="cluster_5366535756_5366535757_5545639495_5545639496_767530322" to="62501649" priority="11" type="highway.secondary" shape="278.21,103.83 269.69,103.75 239.67,106.82 215.81,111.81">
        <lane id="-222786838#0_0" index="0" disallow="tram rail_urban rail rail_electric rail_fast ship" speed="15.65" length="57.36" shape="273.14,108.58 269.91,108.55 240.41,111.57 216.79,116.51"/>
        <lane id="-222786838#0_1" index="1" disallow="tram rail_urban rail rail_electric rail_fast ship" speed="15.65" length="57.36" shape="273.17,105.38 269.76,105.35 239.92,108.40 216.14,113.38"/>
    </edge>
    <edge id="-222786842#0" from="cluster_5366535756_5366535757_5545639495_5545639496_767530322" to="62605528" priority="3" type="highway.residential" shape="290.35,89.07 292.55,74.55 295.80,59.42">
        <lane id="-222786842#0_0" index="0" disallow="tram rail_urban rail rail_electric rail_fast ship" speed="13.89" length="24.68" shape="289.60,83.31 290.98,74.26 294.24,59.08"/>
    </edge>
    <edge id="-441142718#1" from="62616753" to="cluster_5366535756_5366535757_5545639495_5545639496_767530322" priority="11" type="highway.secondary" shape="361.82,115.03 342.76,109.97 326.30,106.38 298.82,104.62">
        <lane id="-441142718#1_0" index="0" disallow="tram rail_urban rail rail_electric rail_fast ship" speed="15.65" length="58.03" shape="359.77,122.76 340.88,117.75 325.19,114.33 303.43,112.93"/>
        <lane id="-441142718#1_1" index="1" disallow="tram rail_urban rail rail_electric rail_fast ship" speed="15.65" length="58.03" shape="360.59,119.67 341.63,114.64 325.63,111.15 303.64,109.74"/>
        <lane id="-441142718#1_2" index="2" disallow="tram rail_urban rail rail_electric rail_fast ship" speed="15.65" length="58.03" shape="361.41,116.58 342.38,111.53 326.08,107.97 303.84,106.54"/>
    </edge>
    <edge id="-8725031#1" from="4200368774" to="cluster_5366535756_5366535757_5545639495_5545639496_767530322" priority="3" type="highway.residential" shape="288.47,162.95 288.19,117.12">
        <lane id="-8725031#1_0" index="0" disallow="tram rail_urban rail rail_electric rail_fast ship" speed="13.89" length="40.51" shape="286.87,162.96 286.62,122.45"/>
    </edge>
    <edge id="222786838#0" from="62501649" to="cluster_5366535756_5366535757_5545639495_5545639496_767530322" priority="11" type="highway.secondary" shape="215.81,111.81 239.67,106.82 269.69,103.75 278.21,103.83">
        <lane id="222786838#0_0" index="0" disallow="tram rail_urban rail rail_electric rail_fast ship" speed="15.65" length="59.08" shape="214.17,103.98 238.44,98.90 269.32,95.75 273.26,95.78"/>
        <lane id="222786838#0_1" index="1" disallow="tram rail_urban rail rail_electric rail_fast ship" speed="15.65" length="59.08" shape="214.83,107.11 238.93,102.07 269.47,98.95 273.23,98.98"/>
        <lane id="222786838#0_2" index="2" disallow="tram rail_urban rail rail_electric rail_fast ship" speed="15.65" length="59.08" shape="215.48,110.24 239.42,105.24 269.62,102.15 273.20,102.18"/>
    </edge>
    <edge id="222786842#0" from="62605528" to="cluster_5366535756_5366535757_5545639495_5545639496_767530322" priority="3" type="highway.residential" shape="295.80,59.42 292.55,74.55 290.35,89.07">
        <lane id="222786842#0_0" index="0" disallow="tram rail_urban rail rail_electric rail_fast ship" speed="13.89" length="24.38" shape="300.49,60.43 297.27,75.41 295.93,84.27"/>
        <lane id="222786842#0_1" index="1" disallow="tram rail_urban rail rail_electric rail_fast ship" speed="13.89" length="24.38" shape="297.36,59.76 294.12,74.84 292.77,83.79"/>
    </edge>
    <edge id="420051409" from="4200368775" to="4200368785" priority="1" type="highway.footway" spreadType="center">
        <lane id="420051409_0" index="0" allow="pedestrian" speed="2.78" length="16.04" width="2.00" shape="277.83,119.62 276.64,135.61"/>
    </edge>
    <edge id="441142718#1" from="cluster_5366535756_5366535757_5545639495_5545639496_767530322" to="62616753" priority="11" type="highway.secondary" shape="298.82,104.62 326.30,106.38 342.76,109.97 361.82,115.03">
        <lane id="441142718#1_0" index="0" disallow="tram rail_urban rail rail_electric rail_fast ship" speed="15.65" length="59.60" shape="304.25,100.16 326.97,101.61 343.89,105.30 363.05,110.39"/>
        <lane id="441142718#1_1" index="1" disallow="tram rail_urban rail rail_electric rail_fast ship" speed="15.65" length="59.60" shape="304.04,103.35 326.52,104.79 343.14,108.41 362.23,113.48"/>
    </edge>
    <edge id="541176731" from="5233656401" to="5233656412" priority="1" type="highway.footway" spreadType="center">
        <lane id="541176731_0" index="0" allow="pedestrian" speed="2.78" length="18.99" width="2.00" shape="302.54,89.76 321.52,90.50"/>
    </edge>
    <edge id="541176742#0" from="5233121811" to="cluster_5366535756_5366535757_5545639495_5545639496_767530322" priority="1" type="highway.footway" spreadType="center" shape="297.66,118.00 298.82,104.62">
        <lane id="541176742#0_0" index="0" allow="pedestrian" speed="2.78" length="0.20" width="2.00" shape="297.76,116.85 297.78,116.65"/>
    </edge>
    <edge id="541176742#1" from="cluster_5366535756_5366535757_5545639495_5545639496_767530322" to="5233656401" priority="1" type="highway.footway" spreadType="center" shape="298.82,104.62 300.09,89.66">
        <lane id="541176742#1_0" index="0" allow="pedestrian" speed="2.78" length="0.20" width="2.00" shape="299.97,91.07 299.99,90.87"/>
    </edge>
    <edge id="541603589" from="5237009835" to="5237009838" priority="1" type="highway.footway" spreadType="center">
        <lane id="541603589_0" index="0" allow="pedestrian" speed="2.78" length="19.79" width="2.00" shape="256.30,88.87 276.09,88.72"/>
    </edge>
    <edge id="541603597#0" from="5237009838" to="cluster_5366535756_5366535757_5545639495_5545639496_767530322" priority="1" type="highway.footway" spreadType="center" shape="278.63,88.70 290.35,89.07">
        <lane id="541603597#0_0" index="0" allow="pedestrian" speed="2.78" length="0.20" width="2.00" shape="279.81,88.74 280.01,88.74"/>
    </edge>
    <edge id="541603597#1" from="cluster_5366535756_5366535757_5545639495_5545639496_767530322" to="5233656401" priority="1" type="highway.footway" spreadType="center" shape="290.35,89.07 300.09,89.66">
        <lane id="541603597#1_0" index="0" allow="pedestrian" speed="2.78" length="0.20" width="2.00" shape="298.68,89.57 298.88,89.59"/>
    </edge>
    <edge id="541603599" from="4200368775" to="5237009882" priority="1" type="highway.footway" spreadType="center">
        <lane id="541603599_0" index="0" allow="pedestrian" speed="2.78" length="17.97" width="2.00" shape="275.39,117.14 257.45,118.25"/>
    </edge>
    <edge id="556323027#0" from="4200368775" to="cluster_5366535756_5366535757_5545639495_5545639496_767530322" priority="1" type="highway.footway" spreadType="center" shape="278.03,116.98 288.19,117.12">
        <lane id="556323027#0_0" index="0" allow="pedestrian" speed="2.78" length="0.20" width="2.00" shape="279.18,117.00 279.38,117.00"/>
    </edge>
    <edge id="556323027#1" from="cluster_5366535756_5366535757_5545639495_5545639496_767530322" to="5233121811" priority="1" type="highway.footway" spreadType="center" shape="288.19,117.12 297.66,118.00">
        <lane id="556323027#1_0" index="0" allow="pedestrian" speed="2.78" length="0.20" width="2.00" shape="296.26,117.87 296.46,117.89"/>
    </edge>
    <edge id="556323028#0" from="4200368775" to="cluster_5366535756_5366535757_5545639495_5545639496_767530322" priority="1" type="highway.footway" spreadType="center" shape="278.03,116.98 278.21,103.83">
        <lane id="556323028#0_0" index="0" allow="pedestrian" speed="2.78" length="0.20" width="2.00" shape="278.05,115.83 278.05,115.63"/>
    </edge>
    <edge id="556323028#1" from="cluster_5366535756_5366535757_5545639495_5545639496_767530322" to="5237009838" priority="1" type="highway.footway" spreadType="center" shape="278.21,103.83 278.63,88.70">
        <lane id="556323028#1_0" index="0" allow="pedestrian" speed="2.78" length="0.20" width="2.00" shape="278.59,90.12 278.60,89.92"/>
    </edge>
    <edge id="608982320" from="5768612402" to="5237009838" priority="1" type="highway.footway" spreadType="center">
        <lane id="608982320_0" index="0" allow="pedestrian" speed="2.78" length="15.70" width="2.00" shape="280.36,70.52 278.87,86.15"/>
    </edge>
    <edge id="608982322" from="5233122026" to="5233121811" priority="1" type="highway.footway" spreadType="center">
        <lane id="608982322_0" index="0" allow="pedestrian" speed="2.78" length="17.20" width="2.00" shape="317.21,120.23 300.12,118.28"/>
    </edge>
    <edge id="8725031#1" from="cluster_5366535756_5366535757_5545639495_5545639496_767530322" to="4200368774" priority="3" type="highway.residential" shape="288.19,117.12 288.47,162.95">
        <lane id="8725031#1_0" index="0" disallow="tram rail_urban rail rail_electric rail_fast ship" speed="13.89" length="40.51" shape="289.82,122.43 290.07,162.94"/>
    </edge>

    <tlLogic id="cluster_5366535756_5366535757_5545639495_5545639496_767530322" type="static" programID="0" offset="0">
        <phase duration="33" state="rrrrGGGggrrrrGGGgg"/>
        <phase duration="3"  state="rrrryyyggrrrryyygg"/>
        <phase duration="6"  state="rrrrrrrGGrrrrrrrGG"/>
        <phase duration="3"  state="rrrrrrryyrrrrrrryy"/>
        <phase duration="33" state="GGggrrrrrGGggrrrrr"/>
        <phase duration="3"  state="yyggrrrrryyggrrrrr"/>
        <phase duration="6"  state="rrGGrrrrrrrGGrrrrr"/>
        <phase duration="3"  state="rryyrrrrrrryyrrrrr"/>
    </tlLogic>

    <junction id="4200368774" type="priority" x="288.47" y="162.95" incLanes="8725031#1_0" intLanes=":4200368774_0_0" shape="288.47,162.95 291.67,162.93 288.47,162.95">
        <request index="0" response="0" foes="0" cont="0"/>
    </junction>
    <junction id="4200368775" type="dead_end" x="278.03" y="116.98" incLanes="" intLanes="" shape="280.52,118.01 280.54,116.01 279.71,115.84 279.42,115.62 279.22,115.33 279.10,114.95 279.06,114.49 277.06,114.47 276.86,115.35 276.62,115.67 276.28,115.91 275.85,116.07 275.33,116.14 275.45,118.14 276.27,118.26 276.55,118.45 276.73,118.72 276.83,119.09 276.84,119.54 278.83,119.69 279.07,118.75 279.32,118.42 279.64,118.19 280.04,118.06"/>
    <junction id="4200368785" type="dead_end" x="276.64" y="135.61" incLanes="420051409_0" intLanes="" shape="277.64,135.68 275.64,135.54"/>
    <junction id="5233121811" type="dead_end" x="297.66" y="118.00" incLanes="608982322_0 556323027#1_0" intLanes="" shape="300.00,119.27 300.23,117.29 299.42,117.02 299.15,116.78 298.96,116.46 298.87,116.06 298.87,115.59 296.88,115.42 296.64,116.23 296.41,116.50 296.10,116.68 295.72,116.77 295.26,116.77 295.07,118.76"/>
    <junction id="5233122026" type="dead_end" x="317.21" y="120.23" incLanes="" intLanes="" shape="317.32,119.24 317.10,121.22"/>
    <junction id="5233656401" type="dead_end" x="300.09" y="89.66" incLanes="541603597#1_0 541176742#1_0" intLanes="" shape="302.50,90.76 302.58,88.76 297.63,88.51 297.51,90.51 298.33,90.72 298.60,90.95 298.78,91.25 298.88,91.63 298.88,92.09 300.87,92.26 301.11,91.40 301.35,91.10 301.66,90.90 302.04,90.78"/>
    <junction id="5233656412" type="dead_end" x="321.52" y="90.50" incLanes="541176731_0" intLanes="" shape="321.56,89.50 321.48,91.50"/>
    <junction id="5237009835" type="dead_end" x="256.30" y="88.87" incLanes="" intLanes="" shape="256.31,89.87 256.29,87.87"/>
    <junction id="5237009838" type="dead_end" x="278.63" y="88.70" incLanes="608982320_0 541603589_0 556323028#1_0" intLanes="" shape="281.16,89.78 281.23,87.78 280.41,87.59 280.14,87.37 279.96,87.08 279.87,86.70 279.87,86.24 277.88,86.05 277.61,86.97 277.35,87.30 277.01,87.53 276.59,87.67 276.09,87.72 276.10,89.72 276.93,89.88 277.22,90.09 277.42,90.38 277.53,90.75 277.56,91.21 279.56,91.26 279.76,90.42 279.98,90.13 280.29,89.92 280.68,89.81"/>
    <junction id="5237009882" type="dead_end" x="257.45" y="118.25" incLanes="541603599_0" intLanes="" shape="257.51,119.25 257.39,117.25"/>
    <junction id="5768612402" type="dead_end" x="280.36" y="70.52" incLanes="" intLanes="" shape="279.36,70.43 281.36,70.61"/>
    <junction id="62501649" type="priority" x="215.81" y="111.81" incLanes="-222786838#0_0 -222786838#0_1" intLanes=":62501649_0_0" shape="215.81,111.81 217.12,118.07 215.81,111.81">
        <request index="0" response="0" foes="0" cont="0"/>
    </junction>
    <junction id="62605528" type="priority" x="295.80" y="59.42" incLanes="-222786842#0_0" intLanes=":62605528_0_0" shape="295.80,59.42 292.67,58.75 295.80,59.42">
        <request index="0" response="0" foes="0" cont="0"/>
    </junction>
    <junction id="62616753" type="priority" x="361.82" y="115.03" incLanes="441142718#1_0 441142718#1_1" intLanes=":62616753_0_0" shape="361.82,115.03 363.46,108.84 361.82,115.03">
        <request index="0" response="0" foes="0" cont="0"/>
    </junction>