<?xml version="1.0" encoding="UTF-8"?>

<!-- generated on Fri 29 Nov 2019 07:50:55 PM EST by Eclipse SUMO netedit Version 1.3.1
<configuration xmlns:xsi="http://www.w3.org/2001/XMLSchema-instance" xsi:noNamespaceSchemaLocation="http://sumo.dlr.de/xsd/netconvertConfiguration.xsd">

    <input>
        <sumo-net-file value="plymouth.net.xml"/>
    </input>

    <output>
        <output-file value="plymouth.net.xml"/>
    </output>

    <processing>
        <geometry.max-grade.fix value="false"/>
        <offset.disable-normalization value="true"/>
        <opposites.guess.fix-lengths value="true"/>
        <lefthand value="false"/>
    </processing>

    <junctions>
        <no-internal-links value="false"/>
        <no-turnarounds value="true"/>
        <junctions.corner-detail value="5"/>
        <junctions.limit-turn-speed value="5.5"/>
        <rectangular-lane-cut value="false"/>
    </junctions>

    <pedestrian>
        <walkingareas value="true"/>
    </pedestrian>

</configuration>
-->

<net version="1.3" junctionCornerDetail="5" walkingareas="true" limitTurnSpeed="5.50" xmlns:xsi="http://www.w3.org/2001/XMLSchema-instance" xsi:noNamespaceSchemaLocation="http://sumo.dlr.de/xsd/net_file.xsd">

    <location netOffset="-275451.62,-4686337.14" convBoundary="151.01,0.00,439.50,203.24" origBoundary="-83.724071,42.297006,-83.712282,42.302187" projParameter="+proj=utm +zone=17 +ellps=WGS84 +datum=WGS84 +units=m +no_defs"/>

    <type id="highway.bridleway" priority="1" numLanes="1" speed="2.78" allow="pedestrian" oneway="1" width="2.00"/>
    <type id="highway.bus_guideway" priority="1" numLanes="1" speed="27.78" allow="bus" oneway="1"/>
    <type id="highway.cycleway" priority="1" numLanes="1" speed="8.33" allow="bicycle" oneway="0" width="1.00"/>
    <type id="highway.footway" priority="1" numLanes="1" speed="2.78" allow="pedestrian" oneway="1" width="2.00"/>
    <type id="highway.ford" priority="1" numLanes="1" speed="2.78" allow="army" oneway="0"/>
    <type id="highway.living_street" priority="2" numLanes="1" speed="2.78" disallow="tram rail_urban rail rail_electric rail_fast ship" oneway="0"/>
    <type id="highway.motorway" priority="14" numLanes="2" speed="39.44" allow="private emergency authority army vip passenger hov taxi bus coach delivery truck trailer motorcycle evehicle custom1 custom2" oneway="1"/>
    <type id="highway.motorway_link" priority="9" numLanes="1" speed="22.22" allow="private emergency authority army vip passenger hov taxi bus coach delivery truck trailer motorcycle evehicle custom1 custom2" oneway="1"/>
    <type id="highway.path" priority="1" numLanes="1" speed="2.78" allow="pedestrian bicycle" oneway="1" width="2.00"/>
    <type id="highway.pedestrian" priority="1" numLanes="1" speed="2.78" allow="pedestrian" oneway="1" width="2.00"/>
    <type id="highway.primary" priority="12" numLanes="2" speed="27.78" disallow="tram rail_urban rail rail_electric rail_fast ship" oneway="0"/>
    <type id="highway.primary_link" priority="7" numLanes="1" speed="22.22" disallow="tram rail_urban rail rail_electric rail_fast ship" oneway="0"/>
    <type id="highway.raceway" priority="15" numLanes="2" speed="83.33" allow="vip" oneway="0"/>
    <type id="highway.residential" priority="3" numLanes="1" speed="13.89" disallow="tram rail_urban rail rail_electric rail_fast ship" oneway="0"/>
    <type id="highway.secondary" priority="11" numLanes="2" speed="27.78" disallow="tram rail_urban rail rail_electric rail_fast ship" oneway="0"/>
    <type id="highway.secondary_link" priority="6" numLanes="1" speed="22.22" disallow="tram rail_urban rail rail_electric rail_fast ship" oneway="0"/>
    <type id="highway.service" priority="1" numLanes="1" speed="5.56" allow="pedestrian delivery bicycle" oneway="0"/>
    <type id="highway.stairs" priority="1" numLanes="1" speed="1.39" allow="pedestrian" oneway="1" width="2.00"/>
    <type id="highway.step" priority="1" numLanes="1" speed="1.39" allow="pedestrian" oneway="1" width="2.00"/>
    <type id="highway.steps" priority="1" numLanes="1" speed="1.39" allow="pedestrian" oneway="1" width="2.00"/>
    <type id="highway.tertiary" priority="10" numLanes="1" speed="22.22" disallow="tram rail_urban rail rail_electric rail_fast ship" oneway="0"/>
    <type id="highway.tertiary_link" priority="5" numLanes="1" speed="22.22" disallow="tram rail_urban rail rail_electric rail_fast ship" oneway="0"/>
    <type id="highway.track" priority="1" numLanes="1" speed="5.56" disallow="tram rail_urban rail rail_electric rail_fast ship" oneway="0"/>
    <type id="highway.trunk" priority="13" numLanes="2" speed="27.78" disallow="pedestrian bicycle tram rail_urban rail rail_electric rail_fast ship" oneway="0"/>
    <type id="highway.trunk_link" priority="8" numLanes="1" speed="22.22" disallow="pedestrian bicycle tram rail_urban rail rail_electric rail_fast ship" oneway="0"/>
    <type id="highway.unclassified" priority="4" numLanes="1" speed="13.89" disallow="tram rail_urban rail rail_electric rail_fast ship" oneway="0"/>
    <type id="highway.unsurfaced" priority="1" numLanes="1" speed="8.33" disallow="tram rail_urban rail rail_electric rail_fast ship" oneway="0"/>
    <type id="railway.highspeed" priority="21" numLanes="1" speed="69.44" allow="rail_fast" oneway="1"/>
    <type id="railway.light_rail" priority="19" numLanes="1" speed="27.78" allow="rail_urban" oneway="1"/>
    <type id="railway.preserved" priority="16" numLanes="1" speed="27.78" allow="rail" oneway="1"/>
    <type id="railway.rail" priority="20" numLanes="1" speed="44.44" allow="rail" oneway="1"/>
    <type id="railway.subway" priority="18" numLanes="1" speed="27.78" allow="rail_urban" oneway="1"/>
    <type id="railway.tram" priority="17" numLanes="1" speed="13.89" allow="tram" oneway="1"/>

    <edge id=":4200368774_0" function="internal">
        <lane id=":4200368774_0_0" index="0" disallow="pedestrian tram rail_urban rail rail_electric rail_fast ship" speed="3.65" length="4.67" shape="288.07,203.27 287.25,204.46 286.44,204.84 285.65,204.42 284.87,203.21"/>
    </edge>
    <edge id=":4200368775_w0" function="walkingarea">
        <lane id=":4200368775_w0_0" index="0" allow="pedestrian" speed="1.00" length="3.28" width="2.00" shape="279.17,118.00 279.19,116.00 279.05,115.84 277.05,115.82 275.10,116.04 275.14,118.04 276.17,119.43 278.07,120.06 278.70,118.07 278.44,118.28 278.32,118.61 278.25,119.03 278.19,119.52"/>
    </edge>
    <edge id=":5233121811_0" function="internal">
        <lane id=":5233121811_0_0" index="0" allow="pedestrian" speed="2.78" length="3.03" width="2.00" shape="300.17,118.18 299.08,118.03 298.31,117.76 297.87,117.36 297.76,116.85"/>
    </edge>
    <edge id=":5233121811_w0" function="walkingarea">
        <lane id=":5233121811_w0_0" index="0" allow="pedestrian" speed="1.00" length="2.71" width="2.00" shape="300.10,119.18 300.24,117.18 298.76,116.93 296.76,116.76 296.55,116.89 296.37,118.88"/>
    </edge>
    <edge id=":5233656401_0" function="internal">
        <lane id=":5233656401_0_0" index="0" allow="pedestrian" speed="2.78" length="4.01" width="2.00" shape="298.88,89.59 300.06,89.70 300.85,89.89 301.62,90.19 302.73,90.62"/>
    </edge>
    <edge id=":5233656401_1" function="internal">
        <lane id=":5233656401_1_0" index="0" allow="pedestrian" speed="2.78" length="3.21" width="2.00" shape="299.98,91.01 300.19,90.48 300.72,90.24 301.57,90.28 302.73,90.62"/>
    </edge>
    <edge id=":5233656401_w0" function="walkingarea">
        <lane id=":5233656401_w0_0" index="0" allow="pedestrian" speed="1.00" length="2.85" width="2.00" shape="302.39,91.56 303.07,89.68 298.94,88.59 298.82,90.58 298.98,90.92 300.97,91.09 302.04,91.38 301.72,91.16 301.44,90.95 301.21,90.83 301.05,90.85"/>
    </edge>
    <edge id=":5237009838_0" function="internal">
        <lane id=":5237009838_0_0" index="0" allow="pedestrian" speed="2.78" length="3.38" width="2.00" shape="280.24,85.95 279.63,87.16 279.40,88.03 279.57,88.55 280.12,88.75"/>
    </edge>
    <edge id=":5237009838_1" function="internal">
        <lane id=":5237009838_1_0" index="0" allow="pedestrian" speed="2.78" length="4.02" width="2.00" shape="276.10,88.70 280.12,88.75"/>
    </edge>
    <edge id=":5237009838_w0" function="walkingarea">
        <lane id=":5237009838_w0_0" index="0" allow="pedestrian" speed="1.00" length="3.46" width="2.00" shape="280.09,89.75 280.15,87.75 281.10,86.46 279.37,85.45 276.10,87.70 276.10,89.70 277.60,89.89 279.60,89.94 279.96,89.74 279.84,89.73 279.75,89.74 279.67,89.77 279.62,89.83"/>
    </edge>
    <edge id=":62501649_0" function="internal">
        <lane id=":62501649_0_0" index="0" disallow="pedestrian tram rail_urban rail rail_electric rail_fast ship" speed="3.65" length="4.67" shape="151.44,132.95 150.07,132.50 149.47,131.84 149.64,130.96 150.58,129.87"/>
    </edge>
    <edge id=":62605528_0" function="internal">
        <lane id=":62605528_0_0" index="0" disallow="pedestrian tram rail_urban rail rail_electric rail_fast ship" speed="3.65" length="4.67" shape="312.60,3.41 313.72,2.50 314.60,2.35 315.25,2.97 315.66,4.35"/>
    </edge>
    <edge id=":62616753_0" function="internal">
        <lane id=":62616753_0_0" index="0" disallow="pedestrian tram rail_urban rail rail_electric rail_fast ship" speed="3.65" length="4.67" shape="439.62,129.25 440.62,130.28 440.84,131.15 440.28,131.85 438.94,132.37"/>
    </edge>
    <edge id=":cluster_5366535756_5366535757_5545639495_5545639496_767530322_0" function="internal">
        <lane id=":cluster_5366535756_5366535757_5545639495_5545639496_767530322_0_0" index="0" disallow="pedestrian tram rail_urban rail rail_electric rail_fast ship" speed="9.06" length="12.58" shape="303.43,112.93 297.49,113.20 293.22,114.86 291.89,116.43"/>
    </edge>
    <edge id=":cluster_5366535756_5366535757_5545639495_5545639496_767530322_1" function="internal">
        <lane id=":cluster_5366535756_5366535757_5545639495_5545639496_767530322_1_0" index="0" disallow="pedestrian tram rail_urban rail rail_electric rail_fast ship" speed="15.65" length="30.69" shape="303.43,112.93 273.14,108.58"/>
        <lane id=":cluster_5366535756_5366535757_5545639495_5545639496_767530322_1_1" index="1" disallow="pedestrian tram rail_urban rail rail_electric rail_fast ship" speed="15.65" length="30.69" shape="303.64,109.74 273.17,105.38"/>
    </edge>
    <edge id=":cluster_5366535756_5366535757_5545639495_5545639496_767530322_3" function="internal">
        <lane id=":cluster_5366535756_5366535757_5545639495_5545639496_767530322_3_0" index="0" disallow="pedestrian tram rail_urban rail rail_electric rail_fast ship" speed="11.35" length="9.22" shape="303.84,106.54 296.36,104.67 295.25,103.65"/>
    </edge>
    <edge id=":cluster_5366535756_5366535757_5545639495_5545639496_767530322_4" function="internal">
        <lane id=":cluster_5366535756_5366535757_5545639495_5545639496_767530322_4_0" index="0" disallow="pedestrian tram rail_urban rail rail_electric rail_fast ship" speed="3.65" length="2.45" shape="303.84,106.54 302.69,105.67 302.35,104.85 302.40,104.74"/>
    </edge>
    <edge id=":cluster_5366535756_5366535757_5545639495_5545639496_767530322_18" function="internal">
        <lane id=":cluster_5366535756_5366535757_5545639495_5545639496_767530322_18_0" index="0" disallow="pedestrian tram rail_urban rail rail_electric rail_fast ship" speed="9.06" length="6.52" shape="291.89,116.43 290.62,117.92 289.69,122.39"/>
    </edge>
    <edge id=":cluster_5366535756_5366535757_5545639495_5545639496_767530322_19" function="internal">
        <lane id=":cluster_5366535756_5366535757_5545639495_5545639496_767530322_19_0" index="0" disallow="pedestrian tram rail_urban rail rail_electric rail_fast ship" speed="11.35" length="22.33" shape="295.25,103.65 291.49,100.17 289.24,93.05 289.60,83.31"/>
    </edge>
    <edge id=":cluster_5366535756_5366535757_5545639495_5545639496_767530322_20" function="internal">
        <lane id=":cluster_5366535756_5366535757_5545639495_5545639496_767530322_20_0" index="0" disallow="pedestrian tram rail_urban rail rail_electric rail_fast ship" speed="3.65" length="2.22" shape="302.40,104.74 302.80,104.07 304.04,103.35"/>
    </edge>
    <edge id=":cluster_5366535756_5366535757_5545639495_5545639496_767530322_5" function="internal">
        <lane id=":cluster_5366535756_5366535757_5545639495_5545639496_767530322_5_0" index="0" disallow="pedestrian tram rail_urban rail rail_electric rail_fast ship" speed="9.26" length="14.00" shape="295.93,84.27 295.59,90.97 296.86,95.85 298.41,97.49"/>
    </edge>
    <edge id=":cluster_5366535756_5366535757_5545639495_5545639496_767530322_6" function="internal">
        <lane id=":cluster_5366535756_5366535757_5545639495_5545639496_767530322_6_0" index="0" disallow="pedestrian tram rail_urban rail rail_electric rail_fast ship" speed="13.89" length="38.63" shape="295.93,84.27 294.34,93.69 292.28,105.16 290.49,115.71 289.69,122.39"/>
    </edge>
    <edge id=":cluster_5366535756_5366535757_5545639495_5545639496_767530322_7" function="internal">
        <lane id=":cluster_5366535756_5366535757_5545639495_5545639496_767530322_7_0" index="0" disallow="pedestrian tram rail_urban rail rail_electric rail_fast ship" speed="12.48" length="10.04" shape="292.77,83.79 290.31,93.30 290.19,93.48"/>
    </edge>
    <edge id=":cluster_5366535756_5366535757_5545639495_5545639496_767530322_8" function="internal">
        <lane id=":cluster_5366535756_5366535757_5545639495_5545639496_767530322_8_0" index="0" disallow="pedestrian tram rail_urban rail rail_electric rail_fast ship" speed="3.65" length="2.34" shape="292.77,83.79 291.80,84.86 290.95,85.13"/>
    </edge>
    <edge id=":cluster_5366535756_5366535757_5545639495_5545639496_767530322_21" function="internal">
        <lane id=":cluster_5366535756_5366535757_5545639495_5545639496_767530322_21_0" index="0" disallow="pedestrian tram rail_urban rail rail_electric rail_fast ship" speed="9.26" length="6.62" shape="298.41,97.49 299.75,98.91 304.25,100.16"/>
    </edge>
    <edge id=":cluster_5366535756_5366535757_5545639495_5545639496_767530322_22" function="internal">
        <lane id=":cluster_5366535756_5366535757_5545639495_5545639496_767530322_22_0" index="0" disallow="pedestrian tram rail_urban rail rail_electric rail_fast ship" speed="12.48" length="22.13" shape="290.19,93.48 286.22,100.06 280.51,104.09 273.17,105.38"/>
    </edge>
    <edge id=":cluster_5366535756_5366535757_5545639495_5545639496_767530322_23" function="internal">
        <lane id=":cluster_5366535756_5366535757_5545639495_5545639496_767530322_23_0" index="0" disallow="pedestrian tram rail_urban rail rail_electric rail_fast ship" speed="3.65" length="2.34" shape="290.95,85.13 290.22,84.62 289.60,83.31"/>
    </edge>
    <edge id=":cluster_5366535756_5366535757_5545639495_5545639496_767530322_9" function="internal">
        <lane id=":cluster_5366535756_5366535757_5545639495_5545639496_767530322_9_0" index="0" disallow="pedestrian tram rail_urban rail rail_electric rail_fast ship" speed="10.56" length="16.65" shape="273.26,95.78 279.69,95.05 284.56,92.73 287.64,89.08"/>
    </edge>
    <edge id=":cluster_5366535756_5366535757_5545639495_5545639496_767530322_10" function="internal">
        <lane id=":cluster_5366535756_5366535757_5545639495_5545639496_767530322_10_0" index="0" disallow="pedestrian tram rail_urban rail rail_electric rail_fast ship" speed="15.65" length="31.26" shape="273.26,95.78 283.02,96.44 290.64,97.78 297.31,99.22 304.25,100.16"/>
        <lane id=":cluster_5366535756_5366535757_5545639495_5545639496_767530322_10_1" index="1" disallow="pedestrian tram rail_urban rail rail_electric rail_fast ship" speed="15.65" length="31.26" shape="273.23,98.98 282.97,99.64 290.52,100.98 297.13,102.42 304.04,103.35"/>
    </edge>
    <edge id=":cluster_5366535756_5366535757_5545639495_5545639496_767530322_12" function="internal">
        <lane id=":cluster_5366535756_5366535757_5545639495_5545639496_767530322_12_0" index="0" disallow="pedestrian tram rail_urban rail rail_electric rail_fast ship" speed="11.33" length="10.25" shape="273.20,102.18 280.56,103.51 282.80,105.14"/>
    </edge>
    <edge id=":cluster_5366535756_5366535757_5545639495_5545639496_767530322_13" function="internal">
        <lane id=":cluster_5366535756_5366535757_5545639495_5545639496_767530322_13_0" index="0" disallow="pedestrian tram rail_urban rail rail_electric rail_fast ship" speed="3.65" length="2.55" shape="273.20,102.18 274.39,102.99 274.78,103.80 274.69,103.98"/>
    </edge>
    <edge id=":cluster_5366535756_5366535757_5545639495_5545639496_767530322_24" function="internal">
        <lane id=":cluster_5366535756_5366535757_5545639495_5545639496_767530322_24_0" index="0" disallow="pedestrian tram rail_urban rail rail_electric rail_fast ship" speed="10.56" length="6.12" shape="287.64,89.08 287.87,88.82 289.60,83.31"/>
    </edge>
    <edge id=":cluster_5366535756_5366535757_5545639495_5545639496_767530322_25" function="internal">
        <lane id=":cluster_5366535756_5366535757_5545639495_5545639496_767530322_25_0" index="0" disallow="pedestrian tram rail_urban rail rail_electric rail_fast ship" speed="11.33" length="19.49" shape="282.80,105.14 285.76,107.31 288.80,113.61 289.69,122.39"/>
    </edge>
    <edge id=":cluster_5366535756_5366535757_5545639495_5545639496_767530322_26" function="internal">
        <lane id=":cluster_5366535756_5366535757_5545639495_5545639496_767530322_26_0" index="0" disallow="pedestrian tram rail_urban rail rail_electric rail_fast ship" speed="3.65" length="2.13" shape="274.69,103.98 274.38,104.59 273.17,105.38"/>
    </edge>
    <edge id=":cluster_5366535756_5366535757_5545639495_5545639496_767530322_14" function="internal">
        <lane id=":cluster_5366535756_5366535757_5545639495_5545639496_767530322_14_0" index="0" disallow="pedestrian tram rail_urban rail rail_electric rail_fast ship" speed="9.78" length="15.89" shape="286.49,122.32 285.75,116.36 283.28,112.08 279.08,109.49"/>
    </edge>
    <edge id=":cluster_5366535756_5366535757_5545639495_5545639496_767530322_15" function="internal">
        <lane id=":cluster_5366535756_5366535757_5545639495_5545639496_767530322_15_0" index="0" disallow="pedestrian tram rail_urban rail rail_electric rail_fast ship" speed="13.89" length="39.14" shape="286.49,122.32 286.91,114.81 287.80,102.80 288.81,90.79 289.60,83.31"/>
    </edge>
    <edge id=":cluster_5366535756_5366535757_5545639495_5545639496_767530322_16" function="internal">
        <lane id=":cluster_5366535756_5366535757_5545639495_5545639496_767530322_16_0" index="0" disallow="pedestrian tram rail_urban rail rail_electric rail_fast ship" speed="11.19" length="13.27" shape="286.49,122.32 287.73,113.61 289.89,109.69"/>
    </edge>
    <edge id=":cluster_5366535756_5366535757_5545639495_5545639496_767530322_17" function="internal">
        <lane id=":cluster_5366535756_5366535757_5545639495_5545639496_767530322_17_0" index="0" disallow="pedestrian tram rail_urban rail rail_electric rail_fast ship" speed="3.65" length="2.50" shape="286.49,122.32 287.31,121.14 288.12,120.75 288.26,120.83"/>
    </edge>
    <edge id=":cluster_5366535756_5366535757_5545639495_5545639496_767530322_27" function="internal">
        <lane id=":cluster_5366535756_5366535757_5545639495_5545639496_767530322_27_0" index="0" disallow="pedestrian tram rail_urban rail rail_electric rail_fast ship" speed="9.78" length="6.01" shape="279.08,109.49 273.14,108.58"/>
    </edge>
    <edge id=":cluster_5366535756_5366535757_5545639495_5545639496_767530322_28" function="internal">
        <lane id=":cluster_5366535756_5366535757_5545639495_5545639496_767530322_28_0" index="0" disallow="pedestrian tram rail_urban rail rail_electric rail_fast ship" speed="11.19" length="16.45" shape="289.89,109.69 291.08,107.54 296.51,104.12 304.04,103.35"/>
    </edge>
    <edge id=":cluster_5366535756_5366535757_5545639495_5545639496_767530322_29" function="internal">
        <lane id=":cluster_5366535756_5366535757_5545639495_5545639496_767530322_29_0" index="0" disallow="pedestrian tram rail_urban rail rail_electric rail_fast ship" speed="3.65" length="2.17" shape="288.26,120.83 288.91,121.17 289.69,122.39"/>
    </edge>
    <edge id=":cluster_5366535756_5366535757_5545639495_5545639496_767530322_c0" function="crossing" crossingEdges="441142718#1 -441142718#1">
        <lane id=":cluster_5366535756_5366535757_5545639495_5545639496_767530322_c0_0" index="0" allow="pedestrian" speed="1.00" length="16.00" width="6.00" shape="301.36,98.37 300.33,114.34"/>
    </edge>
    <edge id=":cluster_5366535756_5366535757_5545639495_5545639496_767530322_c1" function="crossing" crossingEdges="-222786842#0 222786842#0">
        <lane id=":cluster_5366535756_5366535757_5545639495_5545639496_767530322_c1_0" index="0" allow="pedestrian" speed="1.00" length="9.60" width="6.00" shape="287.57,86.04 297.06,87.48"/>
    </edge>
    <edge id=":cluster_5366535756_5366535757_5545639495_5545639496_767530322_c2" function="crossing" crossingEdges="-222786838#0 222786838#0">
        <lane id=":cluster_5366535756_5366535757_5545639495_5545639496_767530322_c2_0" index="0" allow="pedestrian" speed="1.00" length="16.00" width="6.00" shape="276.12,110.21 276.27,94.21"/>
    </edge>
    <edge id=":cluster_5366535756_5366535757_5545639495_5545639496_767530322_c3" function="crossing" crossingEdges="8725031#1 -8725031#1">
        <lane id=":cluster_5366535756_5366535757_5545639495_5545639496_767530322_c3_0" index="0" allow="pedestrian" speed="1.00" length="6.40" width="6.00" shape="291.34,119.42 284.95,119.29"/>
    </edge>
    <edge id=":cluster_5366535756_5366535757_5545639495_5545639496_767530322_w0" function="walkingarea">
        <lane id=":cluster_5366535756_5366535757_5545639495_5545639496_767530322_w0_0" index="0" allow="pedestrian" speed="1.00" length="5.55" width="6.00" shape="291.28,122.42 296.17,118.87 296.35,116.87 296.78,116.56 298.77,116.73 303.33,114.53 299.70,114.54 296.71,115.07 294.38,116.12 292.70,117.70 291.67,119.80"/>
    </edge>
    <edge id=":cluster_5366535756_5366535757_5545639495_5545639496_767530322_w1" function="walkingarea">
        <lane id=":cluster_5366535756_5366535757_5545639495_5545639496_767530322_w1_0" index="0" allow="pedestrian" speed="1.00" length="6.27" width="6.00" shape="304.35,98.56 300.96,91.29 298.96,91.12 298.62,90.57 298.74,88.58 297.51,84.51 297.14,88.65 297.37,92.06 298.20,94.76 299.64,96.75 301.69,98.01"/>
    </edge>
    <edge id=":cluster_5366535756_5366535757_5545639495_5545639496_767530322_w2" function="walkingarea">
        <lane id=":cluster_5366535756_5366535757_5545639495_5545639496_767530322_w2_0" index="0" allow="pedestrian" speed="1.00" length="7.54" width="6.00" shape="288.02,83.07 280.35,87.75 280.29,89.75 279.59,90.14 277.59,90.09 273.27,94.18 277.31,93.91 280.71,93.00 283.48,91.47 285.63,89.30 287.14,86.50"/>
    </edge>
    <edge id=":cluster_5366535756_5366535757_5545639495_5545639496_767530322_w3" function="walkingarea">
        <lane id=":cluster_5366535756_5366535757_5545639495_5545639496_767530322_w3_0" index="0" allow="pedestrian" speed="1.00" length="6.95" width="6.00" shape="273.12,110.18 277.05,115.62 279.05,115.64 279.39,116.00 279.37,118.00 284.89,122.29 284.63,118.62 283.69,115.61 282.07,113.27 279.76,111.58 276.78,110.55"/>
    </edge>

    <edge id="-222786838#0" from="cluster_5366535756_5366535757_5545639495_5545639496_767530322" to="62501649" priority="11" type="highway.secondary" shape="278.21,103.83 269.69,103.75 239.67,106.82 151.01,131.41">
        <lane id="-222786838#0_0" index="0" disallow="pedestrian tram rail_urban rail rail_electric rail_fast ship" speed="15.65" length="124.78" shape="273.14,108.58 269.91,108.55 240.56,111.55 152.29,136.04"/>
        <lane id="-222786838#0_1" index="1" disallow="pedestrian tram rail_urban rail rail_electric rail_fast ship" speed="15.65" length="124.78" shape="273.17,105.38 269.76,105.35 239.97,108.40 151.44,132.95"/>
    </edge>
    <edge id="-222786842#0" from="cluster_5366535756_5366535757_5545639495_5545639496_767530322" to="62605528" priority="3" type="highway.residential" shape="290.35,89.07 292.55,74.55 314.13,3.88">
        <lane id="-222786842#0_0" index="0" disallow="pedestrian tram rail_urban rail rail_electric rail_fast ship" speed="13.89" length="83.23" shape="289.60,83.31 290.99,74.19 312.60,3.41"/>
    </edge>
    <edge id="-441142718#1" from="62616753" to="cluster_5366535756_5366535757_5545639495_5545639496_767530322" priority="11" type="highway.secondary" shape="439.28,130.81 342.76,109.97 326.30,106.38 298.82,104.62">
        <lane id="-441142718#1_0" index="0" disallow="pedestrian tram rail_urban rail rail_electric rail_fast ship" speed="15.65" length="137.28" shape="437.59,138.63 341.07,117.79 325.19,114.33 303.43,112.93"/>
        <lane id="-441142718#1_1" index="1" disallow="pedestrian tram rail_urban rail rail_electric rail_fast ship" speed="15.65" length="137.28" shape="438.27,135.50 341.75,114.66 325.63,111.15 303.64,109.74"/>
        <lane id="-441142718#1_2" index="2" disallow="pedestrian tram rail_urban rail rail_electric rail_fast ship" speed="15.65" length="137.28" shape="438.94,132.37 342.42,111.53 326.08,107.97 303.84,106.54"/>
    </edge>
    <edge id="-8725031#1" from="4200368774" to="cluster_5366535756_5366535757_5545639495_5545639496_767530322" priority="3" type="highway.residential" shape="286.47,203.24 288.19,117.12">
        <lane id="-8725031#1_0" index="0" disallow="pedestrian tram rail_urban rail rail_electric rail_fast ship" speed="13.89" length="80.90" shape="284.87,203.21 286.49,122.32"/>
    </edge>
    <edge id="222786838#0" from="62501649" to="cluster_5366535756_5366535757_5545639495_5545639496_767530322" priority="11" type="highway.secondary" shape="151.01,131.41 239.67,106.82 269.69,103.75 278.21,103.83">
        <lane id="222786838#0_0" index="0" disallow="pedestrian tram rail_urban rail rail_electric rail_fast ship" speed="15.65" length="127.02" shape="148.87,123.70 238.18,98.93 269.32,95.75 273.26,95.78"/>
        <lane id="222786838#0_1" index="1" disallow="pedestrian tram rail_urban rail rail_electric rail_fast ship" speed="15.65" length="127.02" shape="149.73,126.78 238.78,102.09 269.47,98.95 273.23,98.98"/>
        <lane id="222786838#0_2" index="2" disallow="pedestrian tram rail_urban rail rail_electric rail_fast ship" speed="15.65" length="127.02" shape="150.58,129.87 239.37,105.24 269.62,102.15 273.20,102.18"/>
    </edge>
    <edge id="222786842#0" from="62605528" to="cluster_5366535756_5366535757_5545639495_5545639496_767530322" priority="3" type="highway.residential" shape="314.13,3.88 292.55,74.55 290.35,89.07">
        <lane id="222786842#0_0" index="0" disallow="pedestrian tram rail_urban rail rail_electric rail_fast ship" speed="13.89" length="82.53" shape="318.72,5.28 297.24,75.62 295.93,84.27"/>
        <lane id="222786842#0_1" index="1" disallow="pedestrian tram rail_urban rail rail_electric rail_fast ship" speed="13.89" length="82.53" shape="315.66,4.35 294.11,74.91 292.77,83.79"/>
    </edge>
    <edge id="420051409" from="4200368775" to="4200368785" priority="1" type="highway.footway" spreadType="center" shape="278.03,116.98 275.14,125.73 268.85,128.24 252.34,132.18 247.68,135.38 246.16,141.52 246.25,175.03 235.87,175.36 235.58,189.39 207.31,189.30">
        <lane id="420051409_0" index="0" allow="pedestrian" speed="2.78" length="128.23" width="2.00" shape="277.12,119.75 275.14,125.73 268.85,128.24 252.34,132.18 247.68,135.38 246.16,141.52 246.25,175.03 235.87,175.36 235.58,189.39 207.31,189.30"/>
    </edge>
    <edge id="441142718#1" from="cluster_5366535756_5366535757_5545639495_5545639496_767530322" to="62616753" priority="11" type="highway.secondary" shape="298.82,104.62 326.30,106.38 342.76,109.97 439.28,130.81">
        <lane id="441142718#1_0" index="0" disallow="pedestrian tram rail_urban rail rail_electric rail_fast ship" speed="15.65" length="138.47" shape="304.25,100.16 326.97,101.61 343.78,105.28 440.29,126.12"/>
        <lane id="441142718#1_1" index="1" disallow="pedestrian tram rail_urban rail rail_electric rail_fast ship" speed="15.65" length="138.47" shape="304.04,103.35 326.52,104.79 343.10,108.41 439.62,129.25"/>
    </edge>
    <edge id="541176731" from="5233656401" to="5233656412" priority="1" type="highway.footway" spreadType="center" shape="300.09,89.66 306.42,91.96 332.84,95.79 359.36,102.74 389.73,108.45 439.50,116.77">
        <lane id="541176731_0" index="0" allow="pedestrian" speed="2.78" length="139.40" width="2.00" shape="302.73,90.62 306.42,91.96 332.84,95.79 359.36,102.74 389.73,108.45 439.50,116.77"/>
    </edge>
    <edge id="541176742#0" from="5233121811" to="cluster_5366535756_5366535757_5545639495_5545639496_767530322" priority="1" type="highway.footway" spreadType="center" shape="297.66,118.00 298.82,104.62">
        <lane id="541176742#0_0" index="0" allow="pedestrian" speed="2.78" length="0.20" width="2.00" shape="297.76,116.85 297.78,116.65"/>
    </edge>
    <edge id="541176742#1" from="cluster_5366535756_5366535757_5545639495_5545639496_767530322" to="5233656401" priority="1" type="highway.footway" spreadType="center" shape="298.82,104.62 300.09,89.66">
        <lane id="541176742#1_0" index="0" allow="pedestrian" speed="2.78" length="0.20" width="2.00" shape="299.96,91.21 299.98,91.01"/>
    </edge>
    <edge id="541603589" from="5237009835" to="5237009838" priority="1" type="highway.footway" spreadType="center" shape="211.32,96.56 232.73,92.16 264.66,88.69 278.63,88.70">
        <lane id="541603589_0" index="0" allow="pedestrian" speed="2.78" length="65.42" width="2.00" shape="211.32,96.56 232.73,92.16 264.66,88.69 276.10,88.70"/>
    </edge>
    <edge id="541603597#0" from="5237009838" to="cluster_5366535756_5366535757_5545639495_5545639496_767530322" priority="1" type="highway.footway" spreadType="center" shape="278.63,88.70 290.35,89.07">