<?xml version="1.0" encoding="UTF-8"?>

<!-- generated on Sun 17 Nov 2019 01:50:21 PM EST by Eclipse SUMO netedit Version 1.3.1
<configuration xmlns:xsi="http://www.w3.org/2001/XMLSchema-instance" xsi:noNamespaceSchemaLocation="http://sumo.dlr.de/xsd/netconvertConfiguration.xsd">

    <input>
        <sumo-net-file value="plymouth.net.xml"/>
    </input>

    <output>
        <output-file value="plymouth.net.xml"/>
    </output>

    <processing>
        <geometry.max-grade.fix value="false"/>
        <offset.disable-normalization value="true"/>
        <opposites.guess.fix-lengths value="true"/>
        <lefthand value="false"/>
    </processing>

    <junctions>
        <no-turnarounds value="true"/>
        <junctions.corner-detail value="5"/>
        <junctions.limit-turn-speed value="5.5"/>
        <rectangular-lane-cut value="false"/>
    </junctions>

    <pedestrian>
        <walkingareas value="false"/>
    </pedestrian>

</configuration>
-->

<net version="1.3" junctionCornerDetail="5" limitTurnSpeed="5.50" xmlns:xsi="http://www.w3.org/2001/XMLSchema-instance" xsi:noNamespaceSchemaLocation="http://sumo.dlr.de/xsd/net_file.xsd">

    <location netOffset="-275451.62,-4686337.14" convBoundary="84.36,-74.62,486.75,286.02" origBoundary="-83.724071,42.297006,-83.712282,42.302187" projParameter="+proj=utm +zone=17 +ellps=WGS84 +datum=WGS84 +units=m +no_defs"/>

    <type id="highway.bridleway" priority="1" numLanes="1" speed="2.78" allow="pedestrian" oneway="1" width="2.00"/>
    <type id="highway.bus_guideway" priority="1" numLanes="1" speed="27.78" allow="bus" oneway="1"/>
    <type id="highway.cycleway" priority="1" numLanes="1" speed="8.33" allow="bicycle" oneway="0" width="1.00"/>
    <type id="highway.footway" priority="1" numLanes="1" speed="2.78" allow="pedestrian" oneway="1" width="2.00"/>
    <type id="highway.ford" priority="1" numLanes="1" speed="2.78" allow="army" oneway="0"/>
    <type id="highway.living_street" priority="2" numLanes="1" speed="2.78" disallow="tram rail_urban rail rail_electric rail_fast ship" oneway="0"/>
    <type id="highway.motorway" priority="14" numLanes="2" speed="39.44" allow="private emergency authority army vip passenger hov taxi bus coach delivery truck trailer motorcycle evehicle custom1 custom2" oneway="1"/>
    <type id="highway.motorway_link" priority="9" numLanes="1" speed="22.22" allow="private emergency authority army vip passenger hov taxi bus coach delivery truck trailer motorcycle evehicle custom1 custom2" oneway="1"/>
    <type id="highway.path" priority="1" numLanes="1" speed="2.78" allow="pedestrian bicycle" oneway="1" width="2.00"/>
    <type id="highway.pedestrian" priority="1" numLanes="1" speed="2.78" allow="pedestrian" oneway="1" width="2.00"/>
    <type id="highway.primary" priority="12" numLanes="2" speed="27.78" disallow="tram rail_urban rail rail_electric rail_fast ship" oneway="0"/>
    <type id="highway.primary_link" priority="7" numLanes="1" speed="22.22" disallow="tram rail_urban rail rail_electric rail_fast ship" oneway="0"/>
    <type id="highway.raceway" priority="15" numLanes="2" speed="83.33" allow="vip" oneway="0"/>
    <type id="highway.residential" priority="3" numLanes="1" speed="13.89" disallow="tram rail_urban rail rail_electric rail_fast ship" oneway="0"/>
    <type id="highway.secondary" priority="11" numLanes="2" speed="27.78" disallow="tram rail_urban rail rail_electric rail_fast ship" oneway="0"/>
    <type id="highway.secondary_link" priority="6" numLanes="1" speed="22.22" disallow="tram rail_urban rail rail_electric rail_fast ship" oneway="0"/>
    <type id="highway.service" priority="1" numLanes="1" speed="5.56" allow="pedestrian delivery bicycle" oneway="0"/>
    <type id="highway.stairs" priority="1" numLanes="1" speed="1.39" allow="pedestrian" oneway="1" width="2.00"/>
    <type id="highway.step" priority="1" numLanes="1" speed="1.39" allow="pedestrian" oneway="1" width="2.00"/>
    <type id="highway.steps" priority="1" numLanes="1" speed="1.39" allow="pedestrian" oneway="1" width="2.00"/>
    <type id="highway.tertiary" priority="10" numLanes="1" speed="22.22" disallow="tram rail_urban rail rail_electric rail_fast ship" oneway="0"/>
    <type id="highway.tertiary_link" priority="5" numLanes="1" speed="22.22" disallow="tram rail_urban rail rail_electric rail_fast ship" oneway="0"/>
    <type id="highway.track" priority="1" numLanes="1" speed="5.56" disallow="tram rail_urban rail rail_electric rail_fast ship" oneway="0"/>
    <type id="highway.trunk" priority="13" numLanes="2" speed="27.78" disallow="pedestrian bicycle tram rail_urban rail rail_electric rail_fast ship" oneway="0"/>
    <type id="highway.trunk_link" priority="8" numLanes="1" speed="22.22" disallow="pedestrian bicycle tram rail_urban rail rail_electric rail_fast ship" oneway="0"/>
    <type id="highway.unclassified" priority="4" numLanes="1" speed="13.89" disallow="tram rail_urban rail rail_electric rail_fast ship" oneway="0"/>
    <type id="highway.unsurfaced" priority="1" numLanes="1" speed="8.33" disallow="tram rail_urban rail rail_electric rail_fast ship" oneway="0"/>
    <type id="railway.highspeed" priority="21" numLanes="1" speed="69.44" allow="rail_fast" oneway="1"/>
    <type id="railway.light_rail" priority="19" numLanes="1" speed="27.78" allow="rail_urban" oneway="1"/>
    <type id="railway.preserved" priority="16" numLanes="1" speed="27.78" allow="rail" oneway="1"/>
    <type id="railway.rail" priority="20" numLanes="1" speed="44.44" allow="rail" oneway="1"/>
    <type id="railway.subway" priority="18" numLanes="1" speed="27.78" allow="rail_urban" oneway="1"/>
    <type id="railway.tram" priority="17" numLanes="1" speed="13.89" allow="tram" oneway="1"/>

    <edge id=":4200368774_0" function="internal">
        <lane id=":4200368774_0_0" index="0" disallow="tram rail_urban rail rail_electric rail_fast ship" speed="3.65" length="4.67" shape="293.66,285.98 292.89,287.20 292.10,287.62 291.29,287.24 290.46,286.06"/>
    </edge>
    <edge id=":62501649_0" function="internal">
        <lane id=":62501649_0_0" index="0" disallow="tram rail_urban rail rail_electric rail_fast ship" speed="3.65" length="4.67" shape="84.54,126.10 83.26,125.44 82.77,124.69 83.08,123.85 84.18,122.92"/>
    </edge>
    <edge id=":62605528_0" function="internal">
        <lane id=":62605528_0_0" index="0" disallow="tram rail_urban rail rail_electric rail_fast ship" speed="3.65" length="4.67" shape="290.15,-74.61 290.94,-75.82 291.74,-76.22 292.54,-75.82 293.35,-74.63"/>
    </edge>
    <edge id=":62616753_0" function="internal">
        <lane id=":62616753_0_0" index="0" disallow="tram rail_urban rail rail_electric rail_fast ship" speed="3.65" length="4.67" shape="486.87,118.92 488.01,119.81 488.35,120.64 487.89,121.41 486.63,122.12"/>
    </edge>
    <edge id=":cluster_5366535756_5366535757_5545639495_5545639496_767530322_0" function="internal">
        <lane id=":cluster_5366535756_5366535757_5545639495_5545639496_767530322_0_0" index="0" disallow="tram rail_urban rail rail_electric rail_fast ship" speed="9.97" length="22.04" shape="286.71,122.53 285.75,116.48 283.16,112.13 278.96,109.50 273.14,108.58"/>
    </edge>
    <edge id=":cluster_5366535756_5366535757_5545639495_5545639496_767530322_1" function="internal">
        <lane id=":cluster_5366535756_5366535757_5545639495_5545639496_767530322_1_0" index="0" disallow="tram rail_urban rail rail_electric rail_fast ship" speed="13.89" length="39.34" shape="286.71,122.53 287.01,114.99 287.84,102.90 288.82,90.82 289.60,83.31"/>
    </edge>
    <edge id=":cluster_5366535756_5366535757_5545639495_5545639496_767530322_2" function="internal">
        <lane id=":cluster_5366535756_5366535757_5545639495_5545639496_767530322_2_0" index="0" disallow="tram rail_urban rail rail_electric rail_fast ship" speed="11.08" length="14.19" shape="286.71,122.53 287.62,113.71 290.08,108.99"/>
    </edge>
    <edge id=":cluster_5366535756_5366535757_5545639495_5545639496_767530322_3" function="internal">
        <lane id=":cluster_5366535756_5366535757_5545639495_5545639496_767530322_3_0" index="0" disallow="tram rail_urban rail rail_electric rail_fast ship" speed="3.65" length="2.53" shape="286.71,122.53 287.49,121.32 288.28,120.90 288.46,120.98"/>
    </edge>
    <edge id=":cluster_5366535756_5366535757_5545639495_5545639496_767530322_18" function="internal">
        <lane id=":cluster_5366535756_5366535757_5545639495_5545639496_767530322_18_0" index="0" disallow="tram rail_urban rail rail_electric rail_fast ship" speed="11.08" length="15.86" shape="290.08,108.99 290.81,107.58 296.29,104.12 304.04,103.35"/>
    </edge>
    <edge id=":cluster_5366535756_5366535757_5545639495_5545639496_767530322_19" function="internal">
        <lane id=":cluster_5366535756_5366535757_5545639495_5545639496_767530322_19_0" index="0" disallow="tram rail_urban rail rail_electric rail_fast ship" speed="3.65" length="2.14" shape="288.46,120.98 289.09,121.28 289.91,122.46"/>
    </edge>
    <edge id=":cluster_5366535756_5366535757_5545639495_5545639496_767530322_4" function="internal">
        <lane id=":cluster_5366535756_5366535757_5545639495_5545639496_767530322_4_0" index="0" disallow="tram rail_urban rail rail_electric rail_fast ship" speed="8.93" length="19.12" shape="303.43,112.93 297.43,113.20 293.17,114.87 290.67,117.96 289.91,122.46"/>
    </edge>
    <edge id=":cluster_5366535756_5366535757_5545639495_5545639496_767530322_5" function="internal">
        <lane id=":cluster_5366535756_5366535757_5545639495_5545639496_767530322_5_0" index="0" disallow="tram rail_urban rail rail_electric rail_fast ship" speed="15.65" length="30.69" shape="303.43,112.93 273.14,108.58"/>
        <lane id=":cluster_5366535756_5366535757_5545639495_5545639496_767530322_5_1" index="1" disallow="tram rail_urban rail rail_electric rail_fast ship" speed="15.65" length="30.69" shape="303.64,109.74 273.17,105.38"/>
    </edge>
    <edge id=":cluster_5366535756_5366535757_5545639495_5545639496_767530322_7" function="internal">
        <lane id=":cluster_5366535756_5366535757_5545639495_5545639496_767530322_7_0" index="0" disallow="tram rail_urban rail rail_electric rail_fast ship" speed="11.35" length="9.22" shape="303.84,106.54 296.36,104.67 295.25,103.65"/>
    </edge>
    <edge id=":cluster_5366535756_5366535757_5545639495_5545639496_767530322_8" function="internal">
        <lane id=":cluster_5366535756_5366535757_5545639495_5545639496_767530322_8_0" index="0" disallow="tram rail_urban rail rail_electric rail_fast ship" speed="3.65" length="2.45" shape="303.84,106.54 302.69,105.67 302.35,104.85 302.40,104.74"/>
    </edge>
    <edge id=":cluster_5366535756_5366535757_5545639495_5545639496_767530322_20" function="internal">
        <lane id=":cluster_5366535756_5366535757_5545639495_5545639496_767530322_20_0" index="0" disallow="tram rail_urban rail rail_electric rail_fast ship" speed="11.35" length="22.33" shape="295.25,103.65 291.49,100.17 289.24,93.05 289.60,83.31"/>
    </edge>
    <edge id=":cluster_5366535756_5366535757_5545639495_5545639496_767530322_21" function="internal">
        <lane id=":cluster_5366535756_5366535757_5545639495_5545639496_767530322_21_0" index="0" disallow="tram rail_urban rail rail_electric rail_fast ship" speed="3.65" length="2.22" shape="302.40,104.74 302.80,104.07 304.04,103.35"/>
    </edge>
    <edge id=":cluster_5366535756_5366535757_5545639495_5545639496_767530322_9" function="internal">
        <lane id=":cluster_5366535756_5366535757_5545639495_5545639496_767530322_9_0" index="0" disallow="tram rail_urban rail rail_electric rail_fast ship" speed="9.26" length="20.63" shape="295.93,84.27 295.59,90.97 296.86,95.85 299.75,98.91 304.25,100.16"/>
    </edge>
    <edge id=":cluster_5366535756_5366535757_5545639495_5545639496_767530322_10" function="internal">
        <lane id=":cluster_5366535756_5366535757_5545639495_5545639496_767530322_10_0" index="0" disallow="tram rail_urban rail rail_electric rail_fast ship" speed="13.89" length="38.67" shape="295.93,84.27 294.34,93.71 292.32,105.20 290.59,115.77 289.91,122.46"/>
    </edge>
    <edge id=":cluster_5366535756_5366535757_5545639495_5545639496_767530322_11" function="internal">
        <lane id=":cluster_5366535756_5366535757_5545639495_5545639496_767530322_11_0" index="0" disallow="tram rail_urban rail rail_electric rail_fast ship" speed="12.48" length="10.00" shape="292.77,83.79 290.31,93.30 290.21,93.46"/>
    </edge>
    <edge id=":cluster_5366535756_5366535757_5545639495_5545639496_767530322_12" function="internal">
        <lane id=":cluster_5366535756_5366535757_5545639495_5545639496_767530322_12_0" index="0" disallow="tram rail_urban rail rail_electric rail_fast ship" speed="3.65" length="2.34" shape="292.77,83.79 291.80,84.86 290.95,85.13"/>
    </edge>
    <edge id=":cluster_5366535756_5366535757_5545639495_5545639496_767530322_22" function="internal">
        <lane id=":cluster_5366535756_5366535757_5545639495_5545639496_767530322_22_0" index="0" disallow="tram rail_urban rail rail_electric rail_fast ship" speed="12.48" length="22.16" shape="290.21,93.46 286.22,100.06 280.51,104.09 273.17,105.38"/>
    </edge>
    <edge id=":cluster_5366535756_5366535757_5545639495_5545639496_767530322_23" function="internal">
        <lane id=":cluster_5366535756_5366535757_5545639495_5545639496_767530322_23_0" index="0" disallow="tram rail_urban rail rail_electric rail_fast ship" speed="3.65" length="2.34" shape="290.95,85.13 290.22,84.62 289.60,83.31"/>
    </edge>
    <edge id=":cluster_5366535756_5366535757_5545639495_5545639496_767530322_13" function="internal">
        <lane id=":cluster_5366535756_5366535757_5545639495_5545639496_767530322_13_0" index="0" disallow="tram rail_urban rail rail_electric rail_fast ship" speed="10.56" length="22.77" shape="273.26,95.78 279.69,95.05 284.56,92.73 287.87,88.82 289.60,83.31"/>
    </edge>
    <edge id=":cluster_5366535756_5366535757_5545639495_5545639496_767530322_14" function="internal">
        <lane id=":cluster_5366535756_5366535757_5545639495_5545639496_767530322_14_0" index="0" disallow="tram rail_urban rail rail_electric rail_fast ship" speed="15.65" length="31.26" shape="273.26,95.78 283.02,96.44 290.64,97.78 297.31,99.22 304.25,100.16"/>
        <lane id=":cluster_5366535756_5366535757_5545639495_5545639496_767530322_14_1" index="1" disallow="tram rail_urban rail rail_electric rail_fast ship" speed="15.65" length="31.26" shape="273.23,98.98 282.97,99.64 290.52,100.98 297.13,102.42 304.04,103.35"/>
    </edge>
    <edge id=":cluster_5366535756_5366535757_5545639495_5545639496_767530322_16" function="internal">
        <lane id=":cluster_5366535756_5366535757_5545639495_5545639496_767530322_16_0" index="0" disallow="tram rail_urban rail rail_electric rail_fast ship" speed="11.50" length="9.94" shape="273.20,102.18 280.34,103.51 282.49,105.10"/>
    </edge>
    <edge id=":cluster_5366535756_5366535757_5545639495_5545639496_767530322_17" function="internal">
        <lane id=":cluster_5366535756_5366535757_5545639495_5545639496_767530322_17_0" index="0" disallow="tram rail_urban rail rail_electric rail_fast ship" speed="3.65" length="2.55" shape="273.20,102.18 274.39,102.99 274.78,103.80 274.69,103.98"/>
    </edge>
    <edge id=":cluster_5366535756_5366535757_5545639495_5545639496_767530322_24" function="internal">
        <lane id=":cluster_5366535756_5366535757_5545639495_5545639496_767530322_24_0" index="0" disallow="tram rail_urban rail rail_electric rail_fast ship" speed="11.50" length="19.72" shape="282.49,105.10 285.50,107.33 288.70,113.65 289.91,122.46"/>
    </edge>
    <edge id=":cluster_5366535756_5366535757_5545639495_5545639496_767530322_25" function="internal">
        <lane id=":cluster_5366535756_5366535757_5545639495_5545639496_767530322_25_0" index="0" disallow="tram rail_urban rail rail_electric rail_fast ship" speed="3.65" length="2.13" shape="274.69,103.98 274.38,104.59 273.17,105.38"/>
    </edge>

    <edge id="-222786838#0" from="cluster_5366535756_5366535757_5545639495_5545639496_767530322" to="62501649" priority="11" type="highway.secondary" shape="278.21,103.83 269.69,103.75 239.67,106.82 84.36,124.51">
        <lane id="-222786838#0_0" index="0" disallow="tram rail_urban rail rail_electric rail_fast ship" speed="15.65" length="189.59" shape="273.14,108.58 269.91,108.55 240.19,111.59 84.90,129.28"/>
        <lane id="-222786838#0_1" index="1" disallow="tram rail_urban rail rail_electric rail_fast ship" speed="15.65" length="189.59" shape="273.17,105.38 269.76,105.35 239.84,108.41 84.54,126.10"/>
    </edge>
    <edge id="-222786842#0" from="cluster_5366535756_5366535757_5545639495_5545639496_767530322" to="62605528" priority="3" type="highway.residential" shape="290.35,89.07 292.55,74.55 291.75,-74.62">
        <lane id="-222786842#0_0" index="0" disallow="tram rail_urban rail rail_electric rail_fast ship" speed="13.89" length="158.03" shape="289.60,83.31 290.95,74.43 290.15,-74.61"/>
    </edge>
    <edge id="-441142718#1" from="62616753" to="cluster_5366535756_5366535757_5545639495_5545639496_767530322" priority="11" type="highway.secondary" shape="486.75,120.52 342.76,109.97 326.30,106.38 298.82,104.62">
        <lane id="-441142718#1_0" index="0" disallow="tram rail_urban rail rail_electric rail_fast ship" speed="15.65" length="183.58" shape="486.17,128.50 341.61,117.91 325.19,114.33 303.43,112.93"/>
        <lane id="-441142718#1_1" index="1" disallow="tram rail_urban rail rail_electric rail_fast ship" speed="15.65" length="183.58" shape="486.40,125.31 342.07,114.73 325.63,111.15 303.64,109.74"/>
        <lane id="-441142718#1_2" index="2" disallow="tram rail_urban rail rail_electric rail_fast ship" speed="15.65" length="183.58" shape="486.63,122.12 342.53,111.56 326.08,107.97 303.84,106.54"/>
    </edge>
    <edge id="-8725031#1" from="4200368774" to="cluster_5366535756_5366535757_5545639495_5545639496_767530322" priority="3" type="highway.residential" shape="292.06,286.02 288.19,117.12">
        <lane id="-8725031#1_0" index="0" disallow="tram rail_urban rail rail_electric rail_fast ship" speed="13.89" length="163.57" shape="290.46,286.06 286.71,122.53"/>
    </edge>
    <edge id="222786838#0" from="62501649" to="cluster_5366535756_5366535757_5545639495_5545639496_767530322" priority="11" type="highway.secondary" shape="84.36,124.51 239.67,106.82 269.69,103.75 278.21,103.83">
        <lane id="222786838#0_0" index="0" disallow="tram rail_urban rail rail_electric rail_fast ship" speed="15.65" length="190.57" shape="83.45,116.56 238.81,98.87 269.32,95.75 273.26,95.78"/>
        <lane id="222786838#0_1" index="1" disallow="tram rail_urban rail rail_electric rail_fast ship" speed="15.65" length="190.57" shape="83.82,119.74 239.15,102.05 269.47,98.95 273.23,98.98"/>
        <lane id="222786838#0_2" index="2" disallow="tram rail_urban rail rail_electric rail_fast ship" speed="15.65" length="190.57" shape="84.18,122.92 239.50,105.23 269.62,102.15 273.20,102.18"/>
    </edge>
    <edge id="222786842#0" from="62605528" to="cluster_5366535756_5366535757_5545639495_5545639496_767530322" priority="3" type="highway.residential" shape="291.75,-74.62 292.55,74.55 290.35,89.07">
        <lane id="222786842#0_0" index="0" disallow="tram rail_urban rail rail_electric rail_fast ship" speed="13.89" length="158.78" shape="296.55,-74.65 297.35,74.90 295.93,84.27"/>
        <lane id="222786842#0_1" index="1" disallow="tram rail_urban rail rail_electric rail_fast ship" speed="13.89" length="158.78" shape="293.35,-74.63 294.15,74.67 292.77,83.79"/>
    </edge>
    <edge id="420051409" from="4200368775" to="4200368785" priority="1" type="highway.footway" spreadType="center">
        <lane id="420051409_0" index="0" allow="pedestrian" speed="2.78" length="16.04" width="2.00" shape="277.83,119.62 276.64,135.61"/>
    </edge>
    <edge id="441142718#1" from="cluster_5366535756_5366535757_5545639495_5545639496_767530322" to="62616753" priority="11" type="highway.secondary" shape="298.82,104.62 326.30,106.38 342.76,109.97 486.75,120.52">
        <lane id="441142718#1_0" index="0" disallow="tram rail_urban rail rail_electric rail_fast ship" speed="15.65" length="183.66" shape="304.25,100.16 326.97,101.61 343.45,105.21 487.10,115.73"/>
        <lane id="441142718#1_1" index="1" disallow="tram rail_urban rail rail_electric rail_fast ship" speed="15.65" length="183.66" shape="304.04,103.35 326.52,104.79 342.99,108.38 486.87,118.92"/>
    </edge>
    <edge id="541176731" from="5233656401" to="5233656412" priority="1" type="highway.footway" spreadType="center">
        <lane id="541176731_0" index="0" allow="pedestrian" speed="2.78" length="18.99" width="2.00" shape="302.54,89.76 321.52,90.50"/>
    </edge>
    <edge id="541176742#0" from="5233121811" to="cluster_5366535756_5366535757_5545639495_5545639496_767530322" priority="1" type="highway.footway" spreadType="center" shape="297.66,118.00 298.82,104.62">
        <lane id="541176742#0_0" index="0" allow="pedestrian" speed="2.78" length="0.20" width="2.00" shape="297.76,116.85 297.78,116.65"/>
    </edge>
    <edge id="541176742#1" from="cluster_5366535756_5366535757_5545639495_5545639496_767530322" to="5233656401" priority="1" type="highway.footway" spreadType="center" shape="298.82,104.62 300.09,89.66">
        <lane id="541176742#1_0" index="0" allow="pedestrian" speed="2.78" length="0.20" width="2.00" shape="299.97,91.07 299.99,90.87"/>
    </edge>
    <edge id="541603589" from="5237009835" to="5237009838" priority="1" type="highway.footway" spreadType="center">
        <lane id="541603589_0" index="0" allow="pedestrian" speed="2.78" length="19.79" width="2.00" shape="256.30,88.87 276.09,88.72"/>
    </edge>
    <edge id="541603597#0" from="5237009838" to="cluster_5366535756_5366535757_5545639495_5545639496_767530322" priority="1" type="highway.footway" spreadType="center" shape="278.63,88.70 290.35,89.07">
        <lane id="541603597#0_0" index="0" allow="pedestrian" speed="2.78" length="0.20" width="2.00" shape="279.81,88.74 280.01,88.74"/>
    </edge>
    <edge id="541603597#1" from="cluster_5366535756_5366535757_5545639495_5545639496_767530322" to="5233656401" priority="1" type="highway.footway" spreadType="center" shape="290.35,89.07 300.09,89.66">
        <lane id="541603597#1_0" index="0" allow="pedestrian" speed="2.78" length="0.20" width="2.00" shape="298.68,89.57 298.88,89.59"/>
    </edge>
    <edge id="541603599" from="4200368775" to="5237009882" priority="1" type="highway.footway" spreadType="center">
        <lane id="541603599_0" index="0" allow="pedestrian" speed="2.78" length="17.97" width="2.00" shape="275.39,117.14 257.45,118.25"/>
    </edge>
    <edge id="556323027#0" from="4200368775" to="cluster_5366535756_5366535757_5545639495_5545639496_767530322" priority="1" type="highway.footway" spreadType="center" shape="278.03,116.98 288.19,117.12">
        <lane id="556323027#0_0" index="0" allow="pedestrian" speed="2.78" length="0.20" width="2.00" shape="279.18,117.00 279.38,117.00"/>
    </edge>
    <edge id="556323027#1" from="cluster_5366535756_5366535757_5545639495_5545639496_767530322" to="5233121811" priority="1" type="highway.footway" spreadType="center" shape="288.19,117.12 297.66,118.00">
        <lane id="556323027#1_0" index="0" allow="pedestrian" speed="2.78" length="0.20" width="2.00" shape="296.26,117.87 296.46,117.89"/>
    </edge>
    <edge id="556323028#0" from="4200368775" to="cluster_5366535756_5366535757_5545639495_5545639496_767530322" priority="1" type="highway.footway" spreadType="center" shape="278.03,116.98 278.21,103.83">
        <lane id="556323028#0_0" index="0" allow="pedestrian" speed="2.78" length="0.20" width="2.00" shape="278.05,115.83 278.05,115.63"/>
    </edge>
    <edge id="556323028#1" from="cluster_5366535756_5366535757_5545639495_5545639496_767530322" to="5237009838" priority="1" type="highway.footway" spreadType="center" shape="278.21,103.83 278.63,88.70">
        <lane id="556323028#1_0" index="0" allow="pedestrian" speed="2.78" length="0.20" width="2.00" shape="278.59,90.12 278.60,89.92"/>
    </edge>
    <edge id="608982320" from="5768612402" to="5237009838" priority="1" type="highway.footway" spreadType="center">
        <lane id="608982320_0" index="0" allow="pedestrian" speed="2.78" length="15.70" width="2.00" shape="280.36,70.52 278.87,86.15"/>
    </edge>
    <edge id="608982322" from="5233122026" to="5233121811" priority="1" type="highway.footway" spreadType="center">
        <lane id="608982322_0" index="0" allow="pedestrian" speed="2.78" length="17.20" width="2.00" shape="317.21,120.23 300.12,118.28"/>
    </edge>
    <edge id="8725031#1" from="cluster_5366535756_5366535757_5545639495_5545639496_767530322" to="4200368774" priority="3" type="highway.residential" shape="288.19,117.12 292.06,286.02">
        <lane id="8725031#1_0" index="0" disallow="tram rail_urban rail rail_electric rail_fast ship" speed="13.89" length="163.57" shape="289.91,122.46 293.66,285.98"/>
    </edge>

    <tlLogic id="cluster_5366535756_5366535757_5545639495_5545639496_767530322" type="static" programID="0" offset="0">
        <phase duration="33" state="rrrrGGGggrrrrGGGgg"/>
        <phase duration="3"  state="rrrryyyggrrrryyygg"/>
        <phase duration="6"  state="rrrrrrrGGrrrrrrrGG"/>
        <phase duration="3"  state="rrrrrrryyrrrrrrryy"/>
        <phase duration="33" state="GGggrrrrrGGggrrrrr"/>
        <phase duration="3"  state="yyggrrrrryyggrrrrr"/>
        <phase duration="6"  state="rrGGrrrrrrrGGrrrrr"/>
        <phase duration="3"  state="rryyrrrrrrryyrrrrr"/>
    </tlLogic>

    <junction id="4200368774" type="priority" x="292.06" y="286.02" incLanes="8725031#1_0" intLanes=":4200368774_0_0" shape="292.06,286.02 295.26,285.95 292.06,286.02">
        <request index="0" response="0" foes="0" cont="0"/>
    </junction>
    <junction id="4200368775" type="dead_end" x="278.03" y="116.98" incLanes="" intLanes="" shape="280.52,118.01 280.54,116.01 279.71,115.84 279.42,115.62 279.22,115.33 279.10,114.95 279.06,114.49 277.06,114.47 276.86,115.35 276.62,115.67 276.28,115.91 275.85,116.07 275.33,116.14 275.45,118.14 276.27,118.26 276.55,118.45 276.73,118.72 276.83,119.09 276.84,119.54 278.83,119.69 279.07,118.75 279.32,118.42 279.64,118.19 280.04,118.06"/>
    <junction id="4200368785" type="dead_end" x="276.64" y="135.61" incLanes="420051409_0" intLanes="" shape="277.64,135.68 275.64,135.54"/>
    <junction id="5233121811" type="dead_end" x="297.66" y="118.00" incLanes="608982322_0 556323027#1_0" intLanes="" shape="300.00,119.27 300.23,117.29 299.42,117.02 299.15,116.78 298.96,116.46 298.87,116.06 298.87,115.59 296.88,115.42 296.64,116.23 296.41,116.50 296.10,116.68 295.72,116.77 295.26,116.77 295.07,118.76"/>
    <junction id="5233122026" type="dead_end" x="317.21" y="120.23" incLanes="" intLanes="" shape="317.32,119.24 317.10,121.22"/>
    <junction id="5233656401" type="dead_end" x="300.09" y="89.66" incLanes="541603597#1_0 541176742#1_0" intLanes="" shape="302.50,90.76 302.58,88.76 297.63,88.51 297.51,90.51 298.33,90.72 298.60,90.95 298.78,91.25 298.88,91.63 298.88,92.09 300.87,92.26 301.11,91.40 301.35,91.10 301.66,90.90 302.04,90.78"/>
    <junction id="5233656412" type="dead_end" x="321.52" y="90.50" incLanes="541176731_0" intLanes="" shape="321.56,89.50 321.48,91.50"/>
    <junction id="5237009835" type="dead_end" x="256.30" y="88.87" incLanes="" intLanes="" shape="256.31,89.87 256.29,87.87"/>
    <junction id="5237009838" type="dead_end" x="278.63" y="88.70" incLanes="608982320_0 541603589_0 556323028#1_0" intLanes="" shape="281.16,89.78 281.23,87.78 280.41,87.59 280.14,87.37 279.96,87.08 279.87,86.70 279.87,86.24 277.88,86.05 277.61,86.97 277.35,87.30 277.01,87.53 276.59,87.67 276.09,87.72 276.10,89.72 276.93,89.88 277.22,90.09 277.42,90.38 277.53,90.75 277.56,91.21 279.56,91.26 279.76,90.42 279.98,90.13 280.29,89.92 280.68,89.81"/>
    <junction id="5237009882" type="dead_end" x="257.45" y="118.25" incLanes="541603599_0" intLanes="" shape="257.51,119.25 257.39,117.25"/>
    <junction id="5768612402" type="dead_end" x="280.36" y="70.52" incLanes="" intLanes="" shape="279.36,70.43 281.36,70.61"/>
    <junction id="62501649" type="priority" x="84.36" y="124.51" incLanes="-222786838#0_0 -222786838#0_1" intLanes=":62501649_0_0" shape="84.36,124.51 85.08,130.87 84.36,124.51">
        <request index="0" response="0" foes="0" cont="0"/>
    </junction>
    <junction id="62605528" type="priority" x="291.75" y="-74.62" incLanes="-222786842#0_0" intLanes=":62605528_0_0" shape="291.75,-74.62 288.55,-74.60 291.75,-74.62">
        <request index="0" response="0" foes="0" cont="0"/>
    </junction>
    <junction id="62616753" type="priority" x="486.75" y="120.52" incLanes="441142718#1_0 441142718#1_1" intLanes=":62616753_0_0" shape="486.75,120.52 487.22,114.14 486.75,120.52">
        <request index="0" response="0" foes="0" cont="0"/>
    </junction>